
---------- Begin Simulation Statistics ----------
sim_seconds                                  0.100000                       # Number of seconds simulated
sim_ticks                                100000000000                       # Number of ticks simulated
final_tick                               100000000000                       # Number of ticks from beginning of simulation (restored from checkpoints and never reset)
sim_freq                                 1000000000000                       # Frequency of simulated ticks
host_inst_rate                                  12634                       # Simulator instruction rate (inst/s)
host_op_rate                                    25147                       # Simulator op (including micro ops) rate (op/s)
host_tick_rate                               72722115                       # Simulator tick rate (ticks/s)
host_mem_usage                               67400124                       # Number of bytes of host memory used
host_seconds                                  1375.10                       # Real time elapsed on the host
sim_insts                                    17372345                       # Number of instructions simulated
sim_ops                                      34580154                       # Number of ops (including micro ops) simulated
system.voltage_domain.voltage                       1                       # Voltage in Volts
system.clk_domain.clock                          1000                       # Clock period in ticks
system.mem_ctrls0.pwrStateResidencyTicks::UNDEFINED 100000000000                       # Cumulative time (in ticks) in various power states
system.mem_ctrls0.bytes_read::.cpu.inst         23744                       # Number of bytes read from this memory
system.mem_ctrls0.bytes_read::.cpu.data       1179712                       # Number of bytes read from this memory
system.mem_ctrls0.bytes_read::.l2.prefetcher     73931392                       # Number of bytes read from this memory
system.mem_ctrls0.bytes_read::total          75134848                       # Number of bytes read from this memory
system.mem_ctrls0.bytes_inst_read::.cpu.inst        23744                       # Number of instructions bytes read from this memory
system.mem_ctrls0.bytes_inst_read::total        23744                       # Number of instructions bytes read from this memory
system.mem_ctrls0.bytes_written::.writebacks     74057408                       # Number of bytes written to this memory
system.mem_ctrls0.bytes_written::total       74057408                       # Number of bytes written to this memory
system.mem_ctrls0.num_reads::.cpu.inst            371                       # Number of read requests responded to by this memory
system.mem_ctrls0.num_reads::.cpu.data          18433                       # Number of read requests responded to by this memory
system.mem_ctrls0.num_reads::.l2.prefetcher      1155178                       # Number of read requests responded to by this memory
system.mem_ctrls0.num_reads::total            1173982                       # Number of read requests responded to by this memory
system.mem_ctrls0.num_writes::.writebacks      1157147                       # Number of write requests responded to by this memory
system.mem_ctrls0.num_writes::total           1157147                       # Number of write requests responded to by this memory
system.mem_ctrls0.bw_read::.cpu.inst           237440                       # Total read bandwidth from this memory (bytes/s)
system.mem_ctrls0.bw_read::.cpu.data         11797120                       # Total read bandwidth from this memory (bytes/s)
system.mem_ctrls0.bw_read::.l2.prefetcher    739313920                       # Total read bandwidth from this memory (bytes/s)
system.mem_ctrls0.bw_read::total            751348480                       # Total read bandwidth from this memory (bytes/s)
system.mem_ctrls0.bw_inst_read::.cpu.inst       237440                       # Instruction read bandwidth from this memory (bytes/s)
system.mem_ctrls0.bw_inst_read::total          237440                       # Instruction read bandwidth from this memory (bytes/s)
system.mem_ctrls0.bw_write::.writebacks     740574080                       # Write bandwidth from this memory (bytes/s)
system.mem_ctrls0.bw_write::total           740574080                       # Write bandwidth from this memory (bytes/s)
system.mem_ctrls0.bw_total::.writebacks     740574080                       # Total bandwidth to/from this memory (bytes/s)
system.mem_ctrls0.bw_total::.cpu.inst          237440                       # Total bandwidth to/from this memory (bytes/s)
system.mem_ctrls0.bw_total::.cpu.data        11797120                       # Total bandwidth to/from this memory (bytes/s)
system.mem_ctrls0.bw_total::.l2.prefetcher    739313920                       # Total bandwidth to/from this memory (bytes/s)
system.mem_ctrls0.bw_total::total          1491922560                       # Total bandwidth to/from this memory (bytes/s)
system.mem_ctrls0.avgPriority_.writebacks::samples   1157147.00                       # Average QoS priority value for accepted requests
system.mem_ctrls0.avgPriority_.cpu.inst::samples       371.00                       # Average QoS priority value for accepted requests
system.mem_ctrls0.avgPriority_.cpu.data::samples     18433.00                       # Average QoS priority value for accepted requests
system.mem_ctrls0.avgPriority_.l2.prefetcher::samples   1155179.00                       # Average QoS priority value for accepted requests
system.mem_ctrls0.priorityMinLatency     0.000000017492                       # per QoS priority minimum request to response latency (s)
system.mem_ctrls0.priorityMaxLatency     0.000298799652                       # per QoS priority maximum request to response latency (s)
system.mem_ctrls0.numReadWriteTurnArounds        67868                       # Number of turnarounds from READ to WRITE
system.mem_ctrls0.numWriteReadTurnArounds        67868                       # Number of turnarounds from WRITE to READ
system.mem_ctrls0.numStayReadState            3370906                       # Number of times bus staying in READ state
system.mem_ctrls0.numStayWriteState           1093695                       # Number of times bus staying in WRITE state
system.mem_ctrls0.readReqs                    1173983                       # Number of read requests accepted
system.mem_ctrls0.writeReqs                   1157147                       # Number of write requests accepted
system.mem_ctrls0.readBursts                  1173983                       # Number of DRAM read bursts, including those serviced by the write queue
system.mem_ctrls0.writeBursts                 1157147                       # Number of DRAM write bursts, including those merged in the write queue
system.mem_ctrls0.bytesReadDRAM              75134912                       # Total number of bytes read from DRAM
system.mem_ctrls0.bytesReadWrQ                      0                       # Total number of bytes read from write queue
system.mem_ctrls0.bytesWritten               74053376                       # Total number of bytes written to DRAM
system.mem_ctrls0.bytesReadSys               75134912                       # Total read bytes from the system interface side
system.mem_ctrls0.bytesWrittenSys            74057408                       # Total written bytes from the system interface side
system.mem_ctrls0.servicedByWrQ                     0                       # Number of DRAM read bursts serviced by the write queue
system.mem_ctrls0.mergedWrBursts                    0                       # Number of DRAM write bursts merged with an existing one
system.mem_ctrls0.neitherReadNorWriteReqs            0                       # Number of requests that are neither read nor write
system.mem_ctrls0.perBankRdBursts::0            36676                       # Per bank write bursts
system.mem_ctrls0.perBankRdBursts::1            36652                       # Per bank write bursts
system.mem_ctrls0.perBankRdBursts::2            36620                       # Per bank write bursts
system.mem_ctrls0.perBankRdBursts::3            36621                       # Per bank write bursts
system.mem_ctrls0.perBankRdBursts::4            36615                       # Per bank write bursts
system.mem_ctrls0.perBankRdBursts::5            36642                       # Per bank write bursts
system.mem_ctrls0.perBankRdBursts::6            36640                       # Per bank write bursts
system.mem_ctrls0.perBankRdBursts::7            36690                       # Per bank write bursts
system.mem_ctrls0.perBankRdBursts::8            36737                       # Per bank write bursts
system.mem_ctrls0.perBankRdBursts::9            36743                       # Per bank write bursts
system.mem_ctrls0.perBankRdBursts::10           36760                       # Per bank write bursts
system.mem_ctrls0.perBankRdBursts::11           36756                       # Per bank write bursts
system.mem_ctrls0.perBankRdBursts::12           36800                       # Per bank write bursts
system.mem_ctrls0.perBankRdBursts::13           36750                       # Per bank write bursts
system.mem_ctrls0.perBankRdBursts::14           36751                       # Per bank write bursts
system.mem_ctrls0.perBankRdBursts::15           36740                       # Per bank write bursts
system.mem_ctrls0.perBankRdBursts::16           36736                       # Per bank write bursts
system.mem_ctrls0.perBankRdBursts::17           36672                       # Per bank write bursts
system.mem_ctrls0.perBankRdBursts::18           36609                       # Per bank write bursts
system.mem_ctrls0.perBankRdBursts::19           36614                       # Per bank write bursts
system.mem_ctrls0.perBankRdBursts::20           36658                       # Per bank write bursts
system.mem_ctrls0.perBankRdBursts::21           36655                       # Per bank write bursts
system.mem_ctrls0.perBankRdBursts::22           36608                       # Per bank write bursts
system.mem_ctrls0.perBankRdBursts::23           36657                       # Per bank write bursts
system.mem_ctrls0.perBankRdBursts::24           36736                       # Per bank write bursts
system.mem_ctrls0.perBankRdBursts::25           36743                       # Per bank write bursts
system.mem_ctrls0.perBankRdBursts::26           36740                       # Per bank write bursts
system.mem_ctrls0.perBankRdBursts::27           36736                       # Per bank write bursts
system.mem_ctrls0.perBankRdBursts::28           36751                       # Per bank write bursts
system.mem_ctrls0.perBankRdBursts::29           36643                       # Per bank write bursts
system.mem_ctrls0.perBankRdBursts::30           36624                       # Per bank write bursts
system.mem_ctrls0.perBankRdBursts::31           36608                       # Per bank write bursts
system.mem_ctrls0.perBankWrBursts::0            36096                       # Per bank write bursts
system.mem_ctrls0.perBankWrBursts::1            36099                       # Per bank write bursts
system.mem_ctrls0.perBankWrBursts::2            36096                       # Per bank write bursts
system.mem_ctrls0.perBankWrBursts::3            36096                       # Per bank write bursts
system.mem_ctrls0.perBankWrBursts::4            36097                       # Per bank write bursts
system.mem_ctrls0.perBankWrBursts::5            36096                       # Per bank write bursts
system.mem_ctrls0.perBankWrBursts::6            36096                       # Per bank write bursts
system.mem_ctrls0.perBankWrBursts::7            36167                       # Per bank write bursts
system.mem_ctrls0.perBankWrBursts::8            36224                       # Per bank write bursts
system.mem_ctrls0.perBankWrBursts::9            36224                       # Per bank write bursts
system.mem_ctrls0.perBankWrBursts::10           36224                       # Per bank write bursts
system.mem_ctrls0.perBankWrBursts::11           36224                       # Per bank write bursts
system.mem_ctrls0.perBankWrBursts::12           36224                       # Per bank write bursts
system.mem_ctrls0.perBankWrBursts::13           36224                       # Per bank write bursts
system.mem_ctrls0.perBankWrBursts::14           36224                       # Per bank write bursts
system.mem_ctrls0.perBankWrBursts::15           36224                       # Per bank write bursts
system.mem_ctrls0.perBankWrBursts::16           36197                       # Per bank write bursts
system.mem_ctrls0.perBankWrBursts::17           36120                       # Per bank write bursts
system.mem_ctrls0.perBankWrBursts::18           36096                       # Per bank write bursts
system.mem_ctrls0.perBankWrBursts::19           36100                       # Per bank write bursts
system.mem_ctrls0.perBankWrBursts::20           36142                       # Per bank write bursts
system.mem_ctrls0.perBankWrBursts::21           36107                       # Per bank write bursts
system.mem_ctrls0.perBankWrBursts::22           36096                       # Per bank write bursts
system.mem_ctrls0.perBankWrBursts::23           36138                       # Per bank write bursts
system.mem_ctrls0.perBankWrBursts::24           36224                       # Per bank write bursts
system.mem_ctrls0.perBankWrBursts::25           36224                       # Per bank write bursts
system.mem_ctrls0.perBankWrBursts::26           36224                       # Per bank write bursts
system.mem_ctrls0.perBankWrBursts::27           36224                       # Per bank write bursts
system.mem_ctrls0.perBankWrBursts::28           36230                       # Per bank write bursts
system.mem_ctrls0.perBankWrBursts::29           36121                       # Per bank write bursts
system.mem_ctrls0.perBankWrBursts::30           36110                       # Per bank write bursts
system.mem_ctrls0.perBankWrBursts::31           36096                       # Per bank write bursts
system.mem_ctrls0.numRdRetry                        0                       # Number of times read queue was full causing retry
system.mem_ctrls0.numWrRetry                        0                       # Number of times write queue was full causing retry
system.mem_ctrls0.totGap                  99999971007                       # Total gap between requests
system.mem_ctrls0.readPktSize::0                    0                       # Read request sizes (log2)
system.mem_ctrls0.readPktSize::1                    0                       # Read request sizes (log2)
system.mem_ctrls0.readPktSize::2                    0                       # Read request sizes (log2)
system.mem_ctrls0.readPktSize::3                    0                       # Read request sizes (log2)
system.mem_ctrls0.readPktSize::4                    0                       # Read request sizes (log2)
system.mem_ctrls0.readPktSize::5                    0                       # Read request sizes (log2)
system.mem_ctrls0.readPktSize::6              1173983                       # Read request sizes (log2)
system.mem_ctrls0.writePktSize::0                   0                       # Write request sizes (log2)
system.mem_ctrls0.writePktSize::1                   0                       # Write request sizes (log2)
system.mem_ctrls0.writePktSize::2                   0                       # Write request sizes (log2)
system.mem_ctrls0.writePktSize::3                   0                       # Write request sizes (log2)
system.mem_ctrls0.writePktSize::4                   0                       # Write request sizes (log2)
system.mem_ctrls0.writePktSize::5                   0                       # Write request sizes (log2)
system.mem_ctrls0.writePktSize::6             1157147                       # Write request sizes (log2)
system.mem_ctrls0.rdQLenPdf::0                 947461                       # What read queue length does an incoming req see
system.mem_ctrls0.rdQLenPdf::1                 107923                       # What read queue length does an incoming req see
system.mem_ctrls0.rdQLenPdf::2                  47866                       # What read queue length does an incoming req see
system.mem_ctrls0.rdQLenPdf::3                  46644                       # What read queue length does an incoming req see
system.mem_ctrls0.rdQLenPdf::4                  24088                       # What read queue length does an incoming req see
system.mem_ctrls0.rdQLenPdf::5                      1                       # What read queue length does an incoming req see
system.mem_ctrls0.rdQLenPdf::6                      0                       # What read queue length does an incoming req see
system.mem_ctrls0.rdQLenPdf::7                      0                       # What read queue length does an incoming req see
system.mem_ctrls0.rdQLenPdf::8                      0                       # What read queue length does an incoming req see
system.mem_ctrls0.rdQLenPdf::9                      0                       # What read queue length does an incoming req see
system.mem_ctrls0.rdQLenPdf::10                     0                       # What read queue length does an incoming req see
system.mem_ctrls0.rdQLenPdf::11                     0                       # What read queue length does an incoming req see
system.mem_ctrls0.rdQLenPdf::12                     0                       # What read queue length does an incoming req see
system.mem_ctrls0.rdQLenPdf::13                     0                       # What read queue length does an incoming req see
system.mem_ctrls0.rdQLenPdf::14                     0                       # What read queue length does an incoming req see
system.mem_ctrls0.rdQLenPdf::15                     0                       # What read queue length does an incoming req see
system.mem_ctrls0.rdQLenPdf::16                     0                       # What read queue length does an incoming req see
system.mem_ctrls0.rdQLenPdf::17                     0                       # What read queue length does an incoming req see
system.mem_ctrls0.rdQLenPdf::18                     0                       # What read queue length does an incoming req see
system.mem_ctrls0.rdQLenPdf::19                     0                       # What read queue length does an incoming req see
system.mem_ctrls0.rdQLenPdf::20                     0                       # What read queue length does an incoming req see
system.mem_ctrls0.rdQLenPdf::21                     0                       # What read queue length does an incoming req see
system.mem_ctrls0.rdQLenPdf::22                     0                       # What read queue length does an incoming req see
system.mem_ctrls0.rdQLenPdf::23                     0                       # What read queue length does an incoming req see
system.mem_ctrls0.rdQLenPdf::24                     0                       # What read queue length does an incoming req see
system.mem_ctrls0.rdQLenPdf::25                     0                       # What read queue length does an incoming req see
system.mem_ctrls0.rdQLenPdf::26                     0                       # What read queue length does an incoming req see
system.mem_ctrls0.rdQLenPdf::27                     0                       # What read queue length does an incoming req see
system.mem_ctrls0.rdQLenPdf::28                     0                       # What read queue length does an incoming req see
system.mem_ctrls0.rdQLenPdf::29                     0                       # What read queue length does an incoming req see
system.mem_ctrls0.rdQLenPdf::30                     0                       # What read queue length does an incoming req see
system.mem_ctrls0.rdQLenPdf::31                     0                       # What read queue length does an incoming req see
system.mem_ctrls0.rdQLenPdf::32                     0                       # What read queue length does an incoming req see
system.mem_ctrls0.rdQLenPdf::33                     0                       # What read queue length does an incoming req see
system.mem_ctrls0.rdQLenPdf::34                     0                       # What read queue length does an incoming req see
system.mem_ctrls0.rdQLenPdf::35                     0                       # What read queue length does an incoming req see
system.mem_ctrls0.rdQLenPdf::36                     0                       # What read queue length does an incoming req see
system.mem_ctrls0.rdQLenPdf::37                     0                       # What read queue length does an incoming req see
system.mem_ctrls0.rdQLenPdf::38                     0                       # What read queue length does an incoming req see
system.mem_ctrls0.rdQLenPdf::39                     0                       # What read queue length does an incoming req see
system.mem_ctrls0.rdQLenPdf::40                     0                       # What read queue length does an incoming req see
system.mem_ctrls0.rdQLenPdf::41                     0                       # What read queue length does an incoming req see
system.mem_ctrls0.rdQLenPdf::42                     0                       # What read queue length does an incoming req see
system.mem_ctrls0.rdQLenPdf::43                     0                       # What read queue length does an incoming req see
system.mem_ctrls0.rdQLenPdf::44                     0                       # What read queue length does an incoming req see
system.mem_ctrls0.rdQLenPdf::45                     0                       # What read queue length does an incoming req see
system.mem_ctrls0.rdQLenPdf::46                     0                       # What read queue length does an incoming req see
system.mem_ctrls0.rdQLenPdf::47                     0                       # What read queue length does an incoming req see
system.mem_ctrls0.rdQLenPdf::48                     0                       # What read queue length does an incoming req see
system.mem_ctrls0.rdQLenPdf::49                     0                       # What read queue length does an incoming req see
system.mem_ctrls0.rdQLenPdf::50                     0                       # What read queue length does an incoming req see
system.mem_ctrls0.rdQLenPdf::51                     0                       # What read queue length does an incoming req see
system.mem_ctrls0.rdQLenPdf::52                     0                       # What read queue length does an incoming req see
system.mem_ctrls0.rdQLenPdf::53                     0                       # What read queue length does an incoming req see
system.mem_ctrls0.rdQLenPdf::54                     0                       # What read queue length does an incoming req see
system.mem_ctrls0.rdQLenPdf::55                     0                       # What read queue length does an incoming req see
system.mem_ctrls0.rdQLenPdf::56                     0                       # What read queue length does an incoming req see
system.mem_ctrls0.rdQLenPdf::57                     0                       # What read queue length does an incoming req see
system.mem_ctrls0.rdQLenPdf::58                     0                       # What read queue length does an incoming req see
system.mem_ctrls0.rdQLenPdf::59                     0                       # What read queue length does an incoming req see
system.mem_ctrls0.rdQLenPdf::60                     0                       # What read queue length does an incoming req see
system.mem_ctrls0.rdQLenPdf::61                     0                       # What read queue length does an incoming req see
system.mem_ctrls0.rdQLenPdf::62                     0                       # What read queue length does an incoming req see
system.mem_ctrls0.rdQLenPdf::63                     0                       # What read queue length does an incoming req see
system.mem_ctrls0.wrQLenPdf::0                      1                       # What write queue length does an incoming req see
system.mem_ctrls0.wrQLenPdf::1                      1                       # What write queue length does an incoming req see
system.mem_ctrls0.wrQLenPdf::2                      1                       # What write queue length does an incoming req see
system.mem_ctrls0.wrQLenPdf::3                      1                       # What write queue length does an incoming req see
system.mem_ctrls0.wrQLenPdf::4                      1                       # What write queue length does an incoming req see
system.mem_ctrls0.wrQLenPdf::5                      1                       # What write queue length does an incoming req see
system.mem_ctrls0.wrQLenPdf::6                      1                       # What write queue length does an incoming req see
system.mem_ctrls0.wrQLenPdf::7                      1                       # What write queue length does an incoming req see
system.mem_ctrls0.wrQLenPdf::8                      1                       # What write queue length does an incoming req see
system.mem_ctrls0.wrQLenPdf::9                      1                       # What write queue length does an incoming req see
system.mem_ctrls0.wrQLenPdf::10                     1                       # What write queue length does an incoming req see
system.mem_ctrls0.wrQLenPdf::11                     1                       # What write queue length does an incoming req see
system.mem_ctrls0.wrQLenPdf::12                     1                       # What write queue length does an incoming req see
system.mem_ctrls0.wrQLenPdf::13                     1                       # What write queue length does an incoming req see
system.mem_ctrls0.wrQLenPdf::14                     1                       # What write queue length does an incoming req see
system.mem_ctrls0.wrQLenPdf::15                     1                       # What write queue length does an incoming req see
system.mem_ctrls0.wrQLenPdf::16                     1                       # What write queue length does an incoming req see
system.mem_ctrls0.wrQLenPdf::17                     1                       # What write queue length does an incoming req see
system.mem_ctrls0.wrQLenPdf::18                     1                       # What write queue length does an incoming req see
system.mem_ctrls0.wrQLenPdf::19                     1                       # What write queue length does an incoming req see
system.mem_ctrls0.wrQLenPdf::20                     1                       # What write queue length does an incoming req see
system.mem_ctrls0.wrQLenPdf::21                     1                       # What write queue length does an incoming req see
system.mem_ctrls0.wrQLenPdf::22                     1                       # What write queue length does an incoming req see
system.mem_ctrls0.wrQLenPdf::23                     1                       # What write queue length does an incoming req see
system.mem_ctrls0.wrQLenPdf::24                     1                       # What write queue length does an incoming req see
system.mem_ctrls0.wrQLenPdf::25                     1                       # What write queue length does an incoming req see
system.mem_ctrls0.wrQLenPdf::26                     1                       # What write queue length does an incoming req see
system.mem_ctrls0.wrQLenPdf::27                     1                       # What write queue length does an incoming req see
system.mem_ctrls0.wrQLenPdf::28                     1                       # What write queue length does an incoming req see
system.mem_ctrls0.wrQLenPdf::29                     1                       # What write queue length does an incoming req see
system.mem_ctrls0.wrQLenPdf::30                     1                       # What write queue length does an incoming req see
system.mem_ctrls0.wrQLenPdf::31                     1                       # What write queue length does an incoming req see
system.mem_ctrls0.wrQLenPdf::32                     1                       # What write queue length does an incoming req see
system.mem_ctrls0.wrQLenPdf::33                     1                       # What write queue length does an incoming req see
system.mem_ctrls0.wrQLenPdf::34                     1                       # What write queue length does an incoming req see
system.mem_ctrls0.wrQLenPdf::35                     1                       # What write queue length does an incoming req see
system.mem_ctrls0.wrQLenPdf::36                     1                       # What write queue length does an incoming req see
system.mem_ctrls0.wrQLenPdf::37                     1                       # What write queue length does an incoming req see
system.mem_ctrls0.wrQLenPdf::38                     1                       # What write queue length does an incoming req see
system.mem_ctrls0.wrQLenPdf::39                     1                       # What write queue length does an incoming req see
system.mem_ctrls0.wrQLenPdf::40                     1                       # What write queue length does an incoming req see
system.mem_ctrls0.wrQLenPdf::41                     1                       # What write queue length does an incoming req see
system.mem_ctrls0.wrQLenPdf::42                     1                       # What write queue length does an incoming req see
system.mem_ctrls0.wrQLenPdf::43                     1                       # What write queue length does an incoming req see
system.mem_ctrls0.wrQLenPdf::44                     1                       # What write queue length does an incoming req see
system.mem_ctrls0.wrQLenPdf::45                     1                       # What write queue length does an incoming req see
system.mem_ctrls0.wrQLenPdf::46                     1                       # What write queue length does an incoming req see
system.mem_ctrls0.wrQLenPdf::47                 25148                       # What write queue length does an incoming req see
system.mem_ctrls0.wrQLenPdf::48                 31424                       # What write queue length does an incoming req see
system.mem_ctrls0.wrQLenPdf::49                 62148                       # What write queue length does an incoming req see
system.mem_ctrls0.wrQLenPdf::50                 66112                       # What write queue length does an incoming req see
system.mem_ctrls0.wrQLenPdf::51                 67729                       # What write queue length does an incoming req see
system.mem_ctrls0.wrQLenPdf::52                 71118                       # What write queue length does an incoming req see
system.mem_ctrls0.wrQLenPdf::53                 69775                       # What write queue length does an incoming req see
system.mem_ctrls0.wrQLenPdf::54                 69500                       # What write queue length does an incoming req see
system.mem_ctrls0.wrQLenPdf::55                 69562                       # What write queue length does an incoming req see
system.mem_ctrls0.wrQLenPdf::56                 69696                       # What write queue length does an incoming req see
system.mem_ctrls0.wrQLenPdf::57                 68791                       # What write queue length does an incoming req see
system.mem_ctrls0.wrQLenPdf::58                 69495                       # What write queue length does an incoming req see
system.mem_ctrls0.wrQLenPdf::59                 69499                       # What write queue length does an incoming req see
system.mem_ctrls0.wrQLenPdf::60                 69208                       # What write queue length does an incoming req see
system.mem_ctrls0.wrQLenPdf::61                 70765                       # What write queue length does an incoming req see
system.mem_ctrls0.wrQLenPdf::62                 70052                       # What write queue length does an incoming req see
system.mem_ctrls0.wrQLenPdf::63                 69139                       # What write queue length does an incoming req see
system.mem_ctrls0.wrQLenPdf::64                 67939                       # What write queue length does an incoming req see
system.mem_ctrls0.wrQLenPdf::65                     0                       # What write queue length does an incoming req see
system.mem_ctrls0.wrQLenPdf::66                     0                       # What write queue length does an incoming req see
system.mem_ctrls0.wrQLenPdf::67                     0                       # What write queue length does an incoming req see
system.mem_ctrls0.wrQLenPdf::68                     0                       # What write queue length does an incoming req see
system.mem_ctrls0.wrQLenPdf::69                     0                       # What write queue length does an incoming req see
system.mem_ctrls0.wrQLenPdf::70                     0                       # What write queue length does an incoming req see
system.mem_ctrls0.wrQLenPdf::71                     0                       # What write queue length does an incoming req see
system.mem_ctrls0.wrQLenPdf::72                     0                       # What write queue length does an incoming req see
system.mem_ctrls0.wrQLenPdf::73                     0                       # What write queue length does an incoming req see
system.mem_ctrls0.wrQLenPdf::74                     0                       # What write queue length does an incoming req see
system.mem_ctrls0.wrQLenPdf::75                     0                       # What write queue length does an incoming req see
system.mem_ctrls0.wrQLenPdf::76                     0                       # What write queue length does an incoming req see
system.mem_ctrls0.wrQLenPdf::77                     0                       # What write queue length does an incoming req see
system.mem_ctrls0.wrQLenPdf::78                     0                       # What write queue length does an incoming req see
system.mem_ctrls0.wrQLenPdf::79                     0                       # What write queue length does an incoming req see
system.mem_ctrls0.wrQLenPdf::80                     0                       # What write queue length does an incoming req see
system.mem_ctrls0.wrQLenPdf::81                     0                       # What write queue length does an incoming req see
system.mem_ctrls0.wrQLenPdf::82                     0                       # What write queue length does an incoming req see
system.mem_ctrls0.wrQLenPdf::83                     0                       # What write queue length does an incoming req see
system.mem_ctrls0.wrQLenPdf::84                     0                       # What write queue length does an incoming req see
system.mem_ctrls0.wrQLenPdf::85                     0                       # What write queue length does an incoming req see
system.mem_ctrls0.wrQLenPdf::86                     0                       # What write queue length does an incoming req see
system.mem_ctrls0.wrQLenPdf::87                     0                       # What write queue length does an incoming req see
system.mem_ctrls0.wrQLenPdf::88                     0                       # What write queue length does an incoming req see
system.mem_ctrls0.wrQLenPdf::89                     0                       # What write queue length does an incoming req see
system.mem_ctrls0.wrQLenPdf::90                     0                       # What write queue length does an incoming req see
system.mem_ctrls0.wrQLenPdf::91                     0                       # What write queue length does an incoming req see
system.mem_ctrls0.wrQLenPdf::92                     0                       # What write queue length does an incoming req see
system.mem_ctrls0.wrQLenPdf::93                     0                       # What write queue length does an incoming req see
system.mem_ctrls0.wrQLenPdf::94                     0                       # What write queue length does an incoming req see
system.mem_ctrls0.wrQLenPdf::95                     0                       # What write queue length does an incoming req see
system.mem_ctrls0.wrQLenPdf::96                     0                       # What write queue length does an incoming req see
system.mem_ctrls0.wrQLenPdf::97                     0                       # What write queue length does an incoming req see
system.mem_ctrls0.wrQLenPdf::98                     0                       # What write queue length does an incoming req see
system.mem_ctrls0.wrQLenPdf::99                     0                       # What write queue length does an incoming req see
system.mem_ctrls0.wrQLenPdf::100                    0                       # What write queue length does an incoming req see
system.mem_ctrls0.wrQLenPdf::101                    0                       # What write queue length does an incoming req see
system.mem_ctrls0.wrQLenPdf::102                    0                       # What write queue length does an incoming req see
system.mem_ctrls0.wrQLenPdf::103                    0                       # What write queue length does an incoming req see
system.mem_ctrls0.wrQLenPdf::104                    0                       # What write queue length does an incoming req see
system.mem_ctrls0.wrQLenPdf::105                    0                       # What write queue length does an incoming req see
system.mem_ctrls0.wrQLenPdf::106                    0                       # What write queue length does an incoming req see
system.mem_ctrls0.wrQLenPdf::107                    0                       # What write queue length does an incoming req see
system.mem_ctrls0.wrQLenPdf::108                    0                       # What write queue length does an incoming req see
system.mem_ctrls0.wrQLenPdf::109                    0                       # What write queue length does an incoming req see
system.mem_ctrls0.wrQLenPdf::110                    0                       # What write queue length does an incoming req see
system.mem_ctrls0.wrQLenPdf::111                    0                       # What write queue length does an incoming req see
system.mem_ctrls0.wrQLenPdf::112                    0                       # What write queue length does an incoming req see
system.mem_ctrls0.wrQLenPdf::113                    0                       # What write queue length does an incoming req see
system.mem_ctrls0.wrQLenPdf::114                    0                       # What write queue length does an incoming req see
system.mem_ctrls0.wrQLenPdf::115                    0                       # What write queue length does an incoming req see
system.mem_ctrls0.wrQLenPdf::116                    0                       # What write queue length does an incoming req see
system.mem_ctrls0.wrQLenPdf::117                    0                       # What write queue length does an incoming req see
system.mem_ctrls0.wrQLenPdf::118                    0                       # What write queue length does an incoming req see
system.mem_ctrls0.wrQLenPdf::119                    0                       # What write queue length does an incoming req see
system.mem_ctrls0.wrQLenPdf::120                    0                       # What write queue length does an incoming req see
system.mem_ctrls0.wrQLenPdf::121                    0                       # What write queue length does an incoming req see
system.mem_ctrls0.wrQLenPdf::122                    0                       # What write queue length does an incoming req see
system.mem_ctrls0.wrQLenPdf::123                    0                       # What write queue length does an incoming req see
system.mem_ctrls0.wrQLenPdf::124                    0                       # What write queue length does an incoming req see
system.mem_ctrls0.wrQLenPdf::125                    0                       # What write queue length does an incoming req see
system.mem_ctrls0.wrQLenPdf::126                    0                       # What write queue length does an incoming req see
system.mem_ctrls0.wrQLenPdf::127                    0                       # What write queue length does an incoming req see
system.mem_ctrls0.bytesPerActivate::samples       234618                       # Bytes accessed per row activation
system.mem_ctrls0.bytesPerActivate::mean   635.874963                       # Bytes accessed per row activation
system.mem_ctrls0.bytesPerActivate::gmean   491.714515                       # Bytes accessed per row activation
system.mem_ctrls0.bytesPerActivate::stdev   351.423631                       # Bytes accessed per row activation
system.mem_ctrls0.bytesPerActivate::0-127        10683      4.55%      4.55% # Bytes accessed per row activation
system.mem_ctrls0.bytesPerActivate::128-255        36023     15.35%     19.91% # Bytes accessed per row activation
system.mem_ctrls0.bytesPerActivate::256-383        13276      5.66%     25.57% # Bytes accessed per row activation
system.mem_ctrls0.bytesPerActivate::384-511        26607     11.34%     36.91% # Bytes accessed per row activation
system.mem_ctrls0.bytesPerActivate::512-639        19244      8.20%     45.11% # Bytes accessed per row activation
system.mem_ctrls0.bytesPerActivate::640-767        20876      8.90%     54.01% # Bytes accessed per row activation
system.mem_ctrls0.bytesPerActivate::768-895        19208      8.19%     62.19% # Bytes accessed per row activation
system.mem_ctrls0.bytesPerActivate::896-1023        11151      4.75%     66.95% # Bytes accessed per row activation
system.mem_ctrls0.bytesPerActivate::1024-1151        77550     33.05%    100.00% # Bytes accessed per row activation
system.mem_ctrls0.bytesPerActivate::total       234618                       # Bytes accessed per row activation
system.mem_ctrls0.rdPerTurnAround::samples        67868                       # Reads before turning the bus around for writes
system.mem_ctrls0.rdPerTurnAround::mean     17.297813                       # Reads before turning the bus around for writes
system.mem_ctrls0.rdPerTurnAround::gmean    16.993149                       # Reads before turning the bus around for writes
system.mem_ctrls0.rdPerTurnAround::stdev    60.076604                       # Reads before turning the bus around for writes
system.mem_ctrls0.rdPerTurnAround::0-255        67865    100.00%    100.00% # Reads before turning the bus around for writes
system.mem_ctrls0.rdPerTurnAround::256-511            1      0.00%    100.00% # Reads before turning the bus around for writes
system.mem_ctrls0.rdPerTurnAround::512-767            1      0.00%    100.00% # Reads before turning the bus around for writes
system.mem_ctrls0.rdPerTurnAround::15616-15871            1      0.00%    100.00% # Reads before turning the bus around for writes
system.mem_ctrls0.rdPerTurnAround::total        67868                       # Reads before turning the bus around for writes
system.mem_ctrls0.wrPerTurnAround::samples        67868                       # Writes before turning the bus around for reads
system.mem_ctrls0.wrPerTurnAround::mean     17.049036                       # Writes before turning the bus around for reads
system.mem_ctrls0.wrPerTurnAround::gmean    17.003442                       # Writes before turning the bus around for reads
system.mem_ctrls0.wrPerTurnAround::stdev     1.271415                       # Writes before turning the bus around for reads
system.mem_ctrls0.wrPerTurnAround::16           35954     52.98%     52.98% # Writes before turning the bus around for reads
system.mem_ctrls0.wrPerTurnAround::17            5568      8.20%     61.18% # Writes before turning the bus around for reads
system.mem_ctrls0.wrPerTurnAround::18           16943     24.96%     86.15% # Writes before turning the bus around for reads
system.mem_ctrls0.wrPerTurnAround::19            6506      9.59%     95.73% # Writes before turning the bus around for reads
system.mem_ctrls0.wrPerTurnAround::20            2473      3.64%     99.38% # Writes before turning the bus around for reads
system.mem_ctrls0.wrPerTurnAround::21             212      0.31%     99.69% # Writes before turning the bus around for reads
system.mem_ctrls0.wrPerTurnAround::22             212      0.31%    100.00% # Writes before turning the bus around for reads
system.mem_ctrls0.wrPerTurnAround::total        67868                       # Writes before turning the bus around for reads
system.mem_ctrls0.masterReadBytes::.cpu.inst        23744                       # Per-master bytes read from memory
system.mem_ctrls0.masterReadBytes::.cpu.data      1179712                       # Per-master bytes read from memory
system.mem_ctrls0.masterReadBytes::.l2.prefetcher     73931456                       # Per-master bytes read from memory
system.mem_ctrls0.masterWriteBytes::.writebacks     74053376                       # Per-master bytes write to memory
system.mem_ctrls0.masterReadRate::.cpu.inst 237440.000000000000                       # Per-master bytes read from memory rate (Bytes/sec)
system.mem_ctrls0.masterReadRate::.cpu.data 11797120.000000000000                       # Per-master bytes read from memory rate (Bytes/sec)
system.mem_ctrls0.masterReadRate::.l2.prefetcher 739314560.000000000000                       # Per-master bytes read from memory rate (Bytes/sec)
system.mem_ctrls0.masterWriteRate::.writebacks 740533760.000000000000                       # Per-master bytes write to memory rate (Bytes/sec)
system.mem_ctrls0.masterReadAccesses::.cpu.inst          371                       # Per-master read serviced memory accesses
system.mem_ctrls0.masterReadAccesses::.cpu.data        18433                       # Per-master read serviced memory accesses
system.mem_ctrls0.masterReadAccesses::.l2.prefetcher      1155179                       # Per-master read serviced memory accesses
system.mem_ctrls0.masterWriteAccesses::.writebacks      1157147                       # Per-master write serviced memory accesses
system.mem_ctrls0.masterReadTotalLat::.cpu.inst     13856505                       # Per-master read total memory access latency
system.mem_ctrls0.masterReadTotalLat::.cpu.data    924954386                       # Per-master read total memory access latency
system.mem_ctrls0.masterReadTotalLat::.l2.prefetcher  50489208781                       # Per-master read total memory access latency
system.mem_ctrls0.masterWriteTotalLat::.writebacks 5559867975740                       # Per-master write total memory access latency
system.mem_ctrls0.masterReadAvgLat::.cpu.inst     37349.07                       # Per-master read average memory access latency
system.mem_ctrls0.masterReadAvgLat::.cpu.data     50179.26                       # Per-master read average memory access latency
system.mem_ctrls0.masterReadAvgLat::.l2.prefetcher     43706.83                       # Per-master read average memory access latency
system.mem_ctrls0.masterWriteAvgLat::.writebacks   4804806.97                       # Per-master write average memory access latency
system.mem_ctrls0.totQLat                 30892709036                       # Total ticks spent queuing
system.mem_ctrls0.totMemAccLat            51428019672                       # Total ticks spent from burst creation until serviced by the DRAM
system.mem_ctrls0.totBusLat                3911711356                       # Total ticks spent in databus transfers
system.mem_ctrls0.avgQLat                    26314.44                       # Average queueing delay per DRAM burst
system.mem_ctrls0.avgBusLat                   3332.00                       # Average bus latency per DRAM burst
system.mem_ctrls0.avgMemAccLat               43806.44                       # Average memory access latency per DRAM burst
system.mem_ctrls0.avgRdBW                      751.35                       # Average DRAM read bandwidth in MiByte/s
system.mem_ctrls0.avgWrBW                      740.53                       # Average achieved write bandwidth in MiByte/s
system.mem_ctrls0.avgRdBWSys                   751.35                       # Average system read bandwidth in MiByte/s
system.mem_ctrls0.avgWrBWSys                   740.57                       # Average system write bandwidth in MiByte/s
system.mem_ctrls0.peakBW                     19207.00                       # Theoretical peak bandwidth in MiByte/s
system.mem_ctrls0.busUtil                        7.77                       # Data bus utilization in percentage
system.mem_ctrls0.busUtilRead                    3.91                       # Data bus utilization in percentage for reads
system.mem_ctrls0.busUtilWrite                   3.86                       # Data bus utilization in percentage for writes
system.mem_ctrls0.avgRdQLen                      1.42                       # Average read queue length when enqueuing
system.mem_ctrls0.avgWrQLen                     57.04                       # Average write queue length when enqueuing
system.mem_ctrls0.readRowHits                 1057645                       # Number of row buffer hits during reads
system.mem_ctrls0.writeRowHits                1038803                       # Number of row buffer hits during writes
system.mem_ctrls0.readRowHitRate                90.09                       # Row buffer hit rate for reads
system.mem_ctrls0.writeRowHitRate               89.77                       # Row buffer hit rate for writes
system.mem_ctrls0.avgGap                     42897.64                       # Average gap between requests
system.mem_ctrls0.pageHitRate                   89.93                       # Row buffer hit rate, read and write combined
system.mem_ctrls0_0.actEnergy            367863035.904005                       # Energy for activate commands per rank (pJ)
system.mem_ctrls0_0.preEnergy            489069190.041602                       # Energy for precharge commands per rank (pJ)
system.mem_ctrls0_0.readEnergy           2469919780.742430                       # Energy for read commands per rank (pJ)
system.mem_ctrls0_0.writeEnergy          2174797332.959988                       # Energy for write commands per rank (pJ)
system.mem_ctrls0_0.refreshEnergy        10721437456.900036                       # Energy for refresh commands per rank (pJ)
system.mem_ctrls0_0.actBackEnergy        23181257414.548828                       # Energy for active background per rank (pJ)
system.mem_ctrls0_0.preBackEnergy        376958660.198398                       # Energy for precharge background per rank (pJ)
system.mem_ctrls0_0.actPowerDownEnergy   17852717047.603237                       # Energy for active power-down per rank (pJ)
system.mem_ctrls0_0.prePowerDownEnergy   1652738240.159944                       # Energy for precharge power-down per rank (pJ)
system.mem_ctrls0_0.selfRefreshEnergy    23257091200.896038                       # Energy for self refresh per rank (pJ)
system.mem_ctrls0_0.totalEnergy          82560105906.734787                       # Total energy per rank (pJ)
system.mem_ctrls0_0.averagePower           825.601059                       # Core power per rank (mW)
system.mem_ctrls0_0.totalIdleTime         72115754680                       # Total Idle time Per DRAM Rank
system.mem_ctrls0_0.memoryStateTime::IDLE    186874000                       # Time in different power states
system.mem_ctrls0_0.memoryStateTime::REF   2708650000                       # Time in different power states
system.mem_ctrls0_0.memoryStateTime::SREF  39617916807                       # Time in different power states
system.mem_ctrls0_0.memoryStateTime::PRE_PDN   3443199458                       # Time in different power states
system.mem_ctrls0_0.memoryStateTime::ACT  24986178047                       # Time in different power states
system.mem_ctrls0_0.memoryStateTime::ACT_PDN  29057181688                       # Time in different power states
system.mem_ctrls0_1.actEnergy            363855439.584008                       # Energy for activate commands per rank (pJ)
system.mem_ctrls0_1.preEnergy            483736995.772799                       # Energy for precharge commands per rank (pJ)
system.mem_ctrls0_1.readEnergy           2468224635.072027                       # Energy for read commands per rank (pJ)
system.mem_ctrls0_1.writeEnergy          2174098252.704002                       # Energy for write commands per rank (pJ)
system.mem_ctrls0_1.refreshEnergy        10762998785.716011                       # Energy for refresh commands per rank (pJ)
system.mem_ctrls0_1.actBackEnergy        23024446480.022488                       # Energy for active background per rank (pJ)
system.mem_ctrls0_1.preBackEnergy        401286940.992003                       # Energy for precharge background per rank (pJ)
system.mem_ctrls0_1.actPowerDownEnergy   18004323580.723179                       # Energy for active power-down per rank (pJ)
system.mem_ctrls0_1.prePowerDownEnergy   1727577492.479951                       # Energy for precharge power-down per rank (pJ)
system.mem_ctrls0_1.selfRefreshEnergy    23360875574.534428                       # Energy for self refresh per rank (pJ)
system.mem_ctrls0_1.totalEnergy          82829275151.952118                       # Total energy per rank (pJ)
system.mem_ctrls0_1.averagePower           828.292752                       # Core power per rank (mW)
system.mem_ctrls0_1.totalIdleTime         72216196941                       # Total Idle time Per DRAM Rank
system.mem_ctrls0_1.memoryStateTime::IDLE    262181692                       # Time in different power states
system.mem_ctrls0_1.memoryStateTime::REF   2719150000                       # Time in different power states
system.mem_ctrls0_1.memoryStateTime::SREF  39313129721                       # Time in different power states
system.mem_ctrls0_1.memoryStateTime::PRE_PDN   3599113043                       # Time in different power states
system.mem_ctrls0_1.memoryStateTime::ACT  24802471367                       # Time in different power states
system.mem_ctrls0_1.memoryStateTime::ACT_PDN  29303954177                       # Time in different power states
system.mem_ctrls1.pwrStateResidencyTicks::UNDEFINED 100000000000                       # Cumulative time (in ticks) in various power states
system.mem_ctrls1.bytes_read::.cpu.inst         23616                       # Number of bytes read from this memory
system.mem_ctrls1.bytes_read::.cpu.data       1184576                       # Number of bytes read from this memory
system.mem_ctrls1.bytes_read::.l2.prefetcher     73926784                       # Number of bytes read from this memory
system.mem_ctrls1.bytes_read::total          75134976                       # Number of bytes read from this memory
system.mem_ctrls1.bytes_inst_read::.cpu.inst        23616                       # Number of instructions bytes read from this memory
system.mem_ctrls1.bytes_inst_read::total        23616                       # Number of instructions bytes read from this memory
system.mem_ctrls1.bytes_written::.writebacks     74056704                       # Number of bytes written to this memory
system.mem_ctrls1.bytes_written::total       74056704                       # Number of bytes written to this memory
system.mem_ctrls1.num_reads::.cpu.inst            369                       # Number of read requests responded to by this memory
system.mem_ctrls1.num_reads::.cpu.data          18509                       # Number of read requests responded to by this memory
system.mem_ctrls1.num_reads::.l2.prefetcher      1155106                       # Number of read requests responded to by this memory
system.mem_ctrls1.num_reads::total            1173984                       # Number of read requests responded to by this memory
system.mem_ctrls1.num_writes::.writebacks      1157136                       # Number of write requests responded to by this memory
system.mem_ctrls1.num_writes::total           1157136                       # Number of write requests responded to by this memory
system.mem_ctrls1.bw_read::.cpu.inst           236160                       # Total read bandwidth from this memory (bytes/s)
system.mem_ctrls1.bw_read::.cpu.data         11845760                       # Total read bandwidth from this memory (bytes/s)
system.mem_ctrls1.bw_read::.l2.prefetcher    739267840                       # Total read bandwidth from this memory (bytes/s)
system.mem_ctrls1.bw_read::total            751349760                       # Total read bandwidth from this memory (bytes/s)
system.mem_ctrls1.bw_inst_read::.cpu.inst       236160                       # Instruction read bandwidth from this memory (bytes/s)
system.mem_ctrls1.bw_inst_read::total          236160                       # Instruction read bandwidth from this memory (bytes/s)
system.mem_ctrls1.bw_write::.writebacks     740567040                       # Write bandwidth from this memory (bytes/s)
system.mem_ctrls1.bw_write::total           740567040                       # Write bandwidth from this memory (bytes/s)
system.mem_ctrls1.bw_total::.writebacks     740567040                       # Total bandwidth to/from this memory (bytes/s)
system.mem_ctrls1.bw_total::.cpu.inst          236160                       # Total bandwidth to/from this memory (bytes/s)
system.mem_ctrls1.bw_total::.cpu.data        11845760                       # Total bandwidth to/from this memory (bytes/s)
system.mem_ctrls1.bw_total::.l2.prefetcher    739267840                       # Total bandwidth to/from this memory (bytes/s)
system.mem_ctrls1.bw_total::total          1491916800                       # Total bandwidth to/from this memory (bytes/s)
system.mem_ctrls1.avgPriority_.writebacks::samples   1157136.00                       # Average QoS priority value for accepted requests
system.mem_ctrls1.avgPriority_.cpu.inst::samples       369.00                       # Average QoS priority value for accepted requests
system.mem_ctrls1.avgPriority_.cpu.data::samples     18509.00                       # Average QoS priority value for accepted requests
system.mem_ctrls1.avgPriority_.l2.prefetcher::samples   1155107.00                       # Average QoS priority value for accepted requests
system.mem_ctrls1.priorityMinLatency     0.000000017492                       # per QoS priority minimum request to response latency (s)
system.mem_ctrls1.priorityMaxLatency     0.000297177652                       # per QoS priority maximum request to response latency (s)
system.mem_ctrls1.numReadWriteTurnArounds        67867                       # Number of turnarounds from READ to WRITE
system.mem_ctrls1.numWriteReadTurnArounds        67867                       # Number of turnarounds from WRITE to READ
system.mem_ctrls1.numStayReadState            3370895                       # Number of times bus staying in READ state
system.mem_ctrls1.numStayWriteState           1093700                       # Number of times bus staying in WRITE state
system.mem_ctrls1.readReqs                    1173985                       # Number of read requests accepted
system.mem_ctrls1.writeReqs                   1157136                       # Number of write requests accepted
system.mem_ctrls1.readBursts                  1173985                       # Number of DRAM read bursts, including those serviced by the write queue
system.mem_ctrls1.writeBursts                 1157136                       # Number of DRAM write bursts, including those merged in the write queue
system.mem_ctrls1.bytesReadDRAM              75135040                       # Total number of bytes read from DRAM
system.mem_ctrls1.bytesReadWrQ                      0                       # Total number of bytes read from write queue
system.mem_ctrls1.bytesWritten               74052928                       # Total number of bytes written to DRAM
system.mem_ctrls1.bytesReadSys               75135040                       # Total read bytes from the system interface side
system.mem_ctrls1.bytesWrittenSys            74056704                       # Total written bytes from the system interface side
system.mem_ctrls1.servicedByWrQ                     0                       # Number of DRAM read bursts serviced by the write queue
system.mem_ctrls1.mergedWrBursts                    0                       # Number of DRAM write bursts merged with an existing one
system.mem_ctrls1.neitherReadNorWriteReqs            0                       # Number of requests that are neither read nor write
system.mem_ctrls1.perBankRdBursts::0            36679                       # Per bank write bursts
system.mem_ctrls1.perBankRdBursts::1            36647                       # Per bank write bursts
system.mem_ctrls1.perBankRdBursts::2            36622                       # Per bank write bursts
system.mem_ctrls1.perBankRdBursts::3            36622                       # Per bank write bursts
system.mem_ctrls1.perBankRdBursts::4            36616                       # Per bank write bursts
system.mem_ctrls1.perBankRdBursts::5            36645                       # Per bank write bursts
system.mem_ctrls1.perBankRdBursts::6            36634                       # Per bank write bursts
system.mem_ctrls1.perBankRdBursts::7            36692                       # Per bank write bursts
system.mem_ctrls1.perBankRdBursts::8            36737                       # Per bank write bursts
system.mem_ctrls1.perBankRdBursts::9            36739                       # Per bank write bursts
system.mem_ctrls1.perBankRdBursts::10           36759                       # Per bank write bursts
system.mem_ctrls1.perBankRdBursts::11           36754                       # Per bank write bursts
system.mem_ctrls1.perBankRdBursts::12           36798                       # Per bank write bursts
system.mem_ctrls1.perBankRdBursts::13           36751                       # Per bank write bursts
system.mem_ctrls1.perBankRdBursts::14           36752                       # Per bank write bursts
system.mem_ctrls1.perBankRdBursts::15           36740                       # Per bank write bursts
system.mem_ctrls1.perBankRdBursts::16           36736                       # Per bank write bursts
system.mem_ctrls1.perBankRdBursts::17           36675                       # Per bank write bursts
system.mem_ctrls1.perBankRdBursts::18           36611                       # Per bank write bursts
system.mem_ctrls1.perBankRdBursts::19           36615                       # Per bank write bursts
system.mem_ctrls1.perBankRdBursts::20           36662                       # Per bank write bursts
system.mem_ctrls1.perBankRdBursts::21           36656                       # Per bank write bursts
system.mem_ctrls1.perBankRdBursts::22           36608                       # Per bank write bursts
system.mem_ctrls1.perBankRdBursts::23           36657                       # Per bank write bursts
system.mem_ctrls1.perBankRdBursts::24           36736                       # Per bank write bursts
system.mem_ctrls1.perBankRdBursts::25           36740                       # Per bank write bursts
system.mem_ctrls1.perBankRdBursts::26           36738                       # Per bank write bursts
system.mem_ctrls1.perBankRdBursts::27           36736                       # Per bank write bursts
system.mem_ctrls1.perBankRdBursts::28           36750                       # Per bank write bursts
system.mem_ctrls1.perBankRdBursts::29           36647                       # Per bank write bursts
system.mem_ctrls1.perBankRdBursts::30           36623                       # Per bank write bursts
system.mem_ctrls1.perBankRdBursts::31           36608                       # Per bank write bursts
system.mem_ctrls1.perBankWrBursts::0            36096                       # Per bank write bursts
system.mem_ctrls1.perBankWrBursts::1            36096                       # Per bank write bursts
system.mem_ctrls1.perBankWrBursts::2            36096                       # Per bank write bursts
system.mem_ctrls1.perBankWrBursts::3            36096                       # Per bank write bursts
system.mem_ctrls1.perBankWrBursts::4            36097                       # Per bank write bursts
system.mem_ctrls1.perBankWrBursts::5            36096                       # Per bank write bursts
system.mem_ctrls1.perBankWrBursts::6            36097                       # Per bank write bursts
system.mem_ctrls1.perBankWrBursts::7            36168                       # Per bank write bursts
system.mem_ctrls1.perBankWrBursts::8            36224                       # Per bank write bursts
system.mem_ctrls1.perBankWrBursts::9            36224                       # Per bank write bursts
system.mem_ctrls1.perBankWrBursts::10           36224                       # Per bank write bursts
system.mem_ctrls1.perBankWrBursts::11           36224                       # Per bank write bursts
system.mem_ctrls1.perBankWrBursts::12           36224                       # Per bank write bursts
system.mem_ctrls1.perBankWrBursts::13           36222                       # Per bank write bursts
system.mem_ctrls1.perBankWrBursts::14           36220                       # Per bank write bursts
system.mem_ctrls1.perBankWrBursts::15           36220                       # Per bank write bursts
system.mem_ctrls1.perBankWrBursts::16           36194                       # Per bank write bursts
system.mem_ctrls1.perBankWrBursts::17           36120                       # Per bank write bursts
system.mem_ctrls1.perBankWrBursts::18           36096                       # Per bank write bursts
system.mem_ctrls1.perBankWrBursts::19           36101                       # Per bank write bursts
system.mem_ctrls1.perBankWrBursts::20           36144                       # Per bank write bursts
system.mem_ctrls1.perBankWrBursts::21           36106                       # Per bank write bursts
system.mem_ctrls1.perBankWrBursts::22           36096                       # Per bank write bursts
system.mem_ctrls1.perBankWrBursts::23           36142                       # Per bank write bursts
system.mem_ctrls1.perBankWrBursts::24           36224                       # Per bank write bursts
system.mem_ctrls1.perBankWrBursts::25           36224                       # Per bank write bursts
system.mem_ctrls1.perBankWrBursts::26           36224                       # Per bank write bursts
system.mem_ctrls1.perBankWrBursts::27           36224                       # Per bank write bursts
system.mem_ctrls1.perBankWrBursts::28           36231                       # Per bank write bursts
system.mem_ctrls1.perBankWrBursts::29           36122                       # Per bank write bursts
system.mem_ctrls1.perBankWrBursts::30           36109                       # Per bank write bursts
system.mem_ctrls1.perBankWrBursts::31           36096                       # Per bank write bursts
system.mem_ctrls1.numRdRetry                        0                       # Number of times read queue was full causing retry
system.mem_ctrls1.numWrRetry                        0                       # Number of times write queue was full causing retry
system.mem_ctrls1.totGap                  99999824507                       # Total gap between requests
system.mem_ctrls1.readPktSize::0                    0                       # Read request sizes (log2)
system.mem_ctrls1.readPktSize::1                    0                       # Read request sizes (log2)
system.mem_ctrls1.readPktSize::2                    0                       # Read request sizes (log2)
system.mem_ctrls1.readPktSize::3                    0                       # Read request sizes (log2)
system.mem_ctrls1.readPktSize::4                    0                       # Read request sizes (log2)
system.mem_ctrls1.readPktSize::5                    0                       # Read request sizes (log2)
system.mem_ctrls1.readPktSize::6              1173985                       # Read request sizes (log2)
system.mem_ctrls1.writePktSize::0                   0                       # Write request sizes (log2)
system.mem_ctrls1.writePktSize::1                   0                       # Write request sizes (log2)
system.mem_ctrls1.writePktSize::2                   0                       # Write request sizes (log2)
system.mem_ctrls1.writePktSize::3                   0                       # Write request sizes (log2)
system.mem_ctrls1.writePktSize::4                   0                       # Write request sizes (log2)
system.mem_ctrls1.writePktSize::5                   0                       # Write request sizes (log2)
system.mem_ctrls1.writePktSize::6             1157136                       # Write request sizes (log2)
system.mem_ctrls1.rdQLenPdf::0                 947386                       # What read queue length does an incoming req see
system.mem_ctrls1.rdQLenPdf::1                 107916                       # What read queue length does an incoming req see
system.mem_ctrls1.rdQLenPdf::2                  47863                       # What read queue length does an incoming req see
system.mem_ctrls1.rdQLenPdf::3                  46647                       # What read queue length does an incoming req see
system.mem_ctrls1.rdQLenPdf::4                  24172                       # What read queue length does an incoming req see
system.mem_ctrls1.rdQLenPdf::5                      1                       # What read queue length does an incoming req see
system.mem_ctrls1.rdQLenPdf::6                      0                       # What read queue length does an incoming req see
system.mem_ctrls1.rdQLenPdf::7                      0                       # What read queue length does an incoming req see
system.mem_ctrls1.rdQLenPdf::8                      0                       # What read queue length does an incoming req see
system.mem_ctrls1.rdQLenPdf::9                      0                       # What read queue length does an incoming req see
system.mem_ctrls1.rdQLenPdf::10                     0                       # What read queue length does an incoming req see
system.mem_ctrls1.rdQLenPdf::11                     0                       # What read queue length does an incoming req see
system.mem_ctrls1.rdQLenPdf::12                     0                       # What read queue length does an incoming req see
system.mem_ctrls1.rdQLenPdf::13                     0                       # What read queue length does an incoming req see
system.mem_ctrls1.rdQLenPdf::14                     0                       # What read queue length does an incoming req see
system.mem_ctrls1.rdQLenPdf::15                     0                       # What read queue length does an incoming req see
system.mem_ctrls1.rdQLenPdf::16                     0                       # What read queue length does an incoming req see
system.mem_ctrls1.rdQLenPdf::17                     0                       # What read queue length does an incoming req see
system.mem_ctrls1.rdQLenPdf::18                     0                       # What read queue length does an incoming req see
system.mem_ctrls1.rdQLenPdf::19                     0                       # What read queue length does an incoming req see
system.mem_ctrls1.rdQLenPdf::20                     0                       # What read queue length does an incoming req see
system.mem_ctrls1.rdQLenPdf::21                     0                       # What read queue length does an incoming req see
system.mem_ctrls1.rdQLenPdf::22                     0                       # What read queue length does an incoming req see
system.mem_ctrls1.rdQLenPdf::23                     0                       # What read queue length does an incoming req see
system.mem_ctrls1.rdQLenPdf::24                     0                       # What read queue length does an incoming req see
system.mem_ctrls1.rdQLenPdf::25                     0                       # What read queue length does an incoming req see
system.mem_ctrls1.rdQLenPdf::26                     0                       # What read queue length does an incoming req see
system.mem_ctrls1.rdQLenPdf::27                     0                       # What read queue length does an incoming req see
system.mem_ctrls1.rdQLenPdf::28                     0                       # What read queue length does an incoming req see
system.mem_ctrls1.rdQLenPdf::29                     0                       # What read queue length does an incoming req see
system.mem_ctrls1.rdQLenPdf::30                     0                       # What read queue length does an incoming req see
system.mem_ctrls1.rdQLenPdf::31                     0                       # What read queue length does an incoming req see
system.mem_ctrls1.rdQLenPdf::32                     0                       # What read queue length does an incoming req see
system.mem_ctrls1.rdQLenPdf::33                     0                       # What read queue length does an incoming req see
system.mem_ctrls1.rdQLenPdf::34                     0                       # What read queue length does an incoming req see
system.mem_ctrls1.rdQLenPdf::35                     0                       # What read queue length does an incoming req see
system.mem_ctrls1.rdQLenPdf::36                     0                       # What read queue length does an incoming req see
system.mem_ctrls1.rdQLenPdf::37                     0                       # What read queue length does an incoming req see
system.mem_ctrls1.rdQLenPdf::38                     0                       # What read queue length does an incoming req see
system.mem_ctrls1.rdQLenPdf::39                     0                       # What read queue length does an incoming req see
system.mem_ctrls1.rdQLenPdf::40                     0                       # What read queue length does an incoming req see
system.mem_ctrls1.rdQLenPdf::41                     0                       # What read queue length does an incoming req see
system.mem_ctrls1.rdQLenPdf::42                     0                       # What read queue length does an incoming req see
system.mem_ctrls1.rdQLenPdf::43                     0                       # What read queue length does an incoming req see
system.mem_ctrls1.rdQLenPdf::44                     0                       # What read queue length does an incoming req see
system.mem_ctrls1.rdQLenPdf::45                     0                       # What read queue length does an incoming req see
system.mem_ctrls1.rdQLenPdf::46                     0                       # What read queue length does an incoming req see
system.mem_ctrls1.rdQLenPdf::47                     0                       # What read queue length does an incoming req see
system.mem_ctrls1.rdQLenPdf::48                     0                       # What read queue length does an incoming req see
system.mem_ctrls1.rdQLenPdf::49                     0                       # What read queue length does an incoming req see
system.mem_ctrls1.rdQLenPdf::50                     0                       # What read queue length does an incoming req see
system.mem_ctrls1.rdQLenPdf::51                     0                       # What read queue length does an incoming req see
system.mem_ctrls1.rdQLenPdf::52                     0                       # What read queue length does an incoming req see
system.mem_ctrls1.rdQLenPdf::53                     0                       # What read queue length does an incoming req see
system.mem_ctrls1.rdQLenPdf::54                     0                       # What read queue length does an incoming req see
system.mem_ctrls1.rdQLenPdf::55                     0                       # What read queue length does an incoming req see
system.mem_ctrls1.rdQLenPdf::56                     0                       # What read queue length does an incoming req see
system.mem_ctrls1.rdQLenPdf::57                     0                       # What read queue length does an incoming req see
system.mem_ctrls1.rdQLenPdf::58                     0                       # What read queue length does an incoming req see
system.mem_ctrls1.rdQLenPdf::59                     0                       # What read queue length does an incoming req see
system.mem_ctrls1.rdQLenPdf::60                     0                       # What read queue length does an incoming req see
system.mem_ctrls1.rdQLenPdf::61                     0                       # What read queue length does an incoming req see
system.mem_ctrls1.rdQLenPdf::62                     0                       # What read queue length does an incoming req see
system.mem_ctrls1.rdQLenPdf::63                     0                       # What read queue length does an incoming req see
system.mem_ctrls1.wrQLenPdf::0                      1                       # What write queue length does an incoming req see
system.mem_ctrls1.wrQLenPdf::1                      1                       # What write queue length does an incoming req see
system.mem_ctrls1.wrQLenPdf::2                      1                       # What write queue length does an incoming req see
system.mem_ctrls1.wrQLenPdf::3                      1                       # What write queue length does an incoming req see
system.mem_ctrls1.wrQLenPdf::4                      1                       # What write queue length does an incoming req see
system.mem_ctrls1.wrQLenPdf::5                      1                       # What write queue length does an incoming req see
system.mem_ctrls1.wrQLenPdf::6                      1                       # What write queue length does an incoming req see
system.mem_ctrls1.wrQLenPdf::7                      1                       # What write queue length does an incoming req see
system.mem_ctrls1.wrQLenPdf::8                      1                       # What write queue length does an incoming req see
system.mem_ctrls1.wrQLenPdf::9                      1                       # What write queue length does an incoming req see
system.mem_ctrls1.wrQLenPdf::10                     1                       # What write queue length does an incoming req see
system.mem_ctrls1.wrQLenPdf::11                     1                       # What write queue length does an incoming req see
system.mem_ctrls1.wrQLenPdf::12                     1                       # What write queue length does an incoming req see
system.mem_ctrls1.wrQLenPdf::13                     1                       # What write queue length does an incoming req see
system.mem_ctrls1.wrQLenPdf::14                     1                       # What write queue length does an incoming req see
system.mem_ctrls1.wrQLenPdf::15                     1                       # What write queue length does an incoming req see
system.mem_ctrls1.wrQLenPdf::16                     1                       # What write queue length does an incoming req see
system.mem_ctrls1.wrQLenPdf::17                     1                       # What write queue length does an incoming req see
system.mem_ctrls1.wrQLenPdf::18                     1                       # What write queue length does an incoming req see
system.mem_ctrls1.wrQLenPdf::19                     1                       # What write queue length does an incoming req see
system.mem_ctrls1.wrQLenPdf::20                     1                       # What write queue length does an incoming req see
system.mem_ctrls1.wrQLenPdf::21                     1                       # What write queue length does an incoming req see
system.mem_ctrls1.wrQLenPdf::22                     1                       # What write queue length does an incoming req see
[...]
system.l2.blocked::no_targets                       0                       # number of cycles access was blocked
system.l2.avg_blocked_cycles::no_mshrs            nan                       # average number of cycles each access was blocked
system.l2.avg_blocked_cycles::no_targets          nan                       # average number of cycles each access was blocked
system.l2.unused_prefetches                        53                       # number of HardPF blocks evicted w/o reference
system.l2.writebacks::.writebacks             2314283                       # number of writebacks
system.l2.writebacks::total                   2314283                       # number of writebacks
system.l2.ReadExReq_mshr_hits::.cpu.data        15414                       # number of ReadExReq MSHR hits
system.l2.ReadExReq_mshr_hits::total            15414                       # number of ReadExReq MSHR hits
system.l2.demand_mshr_hits::.cpu.data           15414                       # number of demand (read+write) MSHR hits
system.l2.demand_mshr_hits::total               15414                       # number of demand (read+write) MSHR hits
system.l2.overall_mshr_hits::.cpu.data          15414                       # number of overall MSHR hits
system.l2.overall_mshr_hits::total              15414                       # number of overall MSHR hits
system.l2.HardPFReq_mshr_misses::.l2.prefetcher      2310886                       # number of HardPFReq MSHR misses
system.l2.HardPFReq_mshr_misses::total        2310886                       # number of HardPFReq MSHR misses
system.l2.UpgradeReq_mshr_misses::.cpu.data            2                       # number of UpgradeReq MSHR misses
system.l2.UpgradeReq_mshr_misses::total             2                       # number of UpgradeReq MSHR misses
system.l2.ReadExReq_mshr_misses::.cpu.data        36828                       # number of ReadExReq MSHR misses
system.l2.ReadExReq_mshr_misses::total          36828                       # number of ReadExReq MSHR misses
system.l2.ReadCleanReq_mshr_misses::.cpu.inst          740                       # number of ReadCleanReq MSHR misses
system.l2.ReadCleanReq_mshr_misses::total          740                       # number of ReadCleanReq MSHR misses
system.l2.ReadSharedReq_mshr_misses::.cpu.data          114                       # number of ReadSharedReq MSHR misses
system.l2.ReadSharedReq_mshr_misses::total          114                       # number of ReadSharedReq MSHR misses
system.l2.demand_mshr_misses::.cpu.inst           740                       # number of demand (read+write) MSHR misses
system.l2.demand_mshr_misses::.cpu.data         36942                       # number of demand (read+write) MSHR misses
system.l2.demand_mshr_misses::total             37682                       # number of demand (read+write) MSHR misses
system.l2.overall_mshr_misses::.cpu.inst          740                       # number of overall MSHR misses
system.l2.overall_mshr_misses::.cpu.data        36942                       # number of overall MSHR misses
system.l2.overall_mshr_misses::.l2.prefetcher      2310886                       # number of overall MSHR misses
system.l2.overall_mshr_misses::total          2348568                       # number of overall MSHR misses
system.l2.HardPFReq_mshr_miss_latency::.l2.prefetcher 176481175603                       # number of HardPFReq MSHR miss cycles
system.l2.HardPFReq_mshr_miss_latency::total 176481175603                       # number of HardPFReq MSHR miss cycles
system.l2.UpgradeReq_mshr_miss_latency::.cpu.data        61000                       # number of UpgradeReq MSHR miss cycles
system.l2.UpgradeReq_mshr_miss_latency::total        61000                       # number of UpgradeReq MSHR miss cycles
system.l2.ReadExReq_mshr_miss_latency::.cpu.data   4243666500                       # number of ReadExReq MSHR miss cycles
system.l2.ReadExReq_mshr_miss_latency::total   4243666500                       # number of ReadExReq MSHR miss cycles
system.l2.ReadCleanReq_mshr_miss_latency::.cpu.inst     68343500                       # number of ReadCleanReq MSHR miss cycles
system.l2.ReadCleanReq_mshr_miss_latency::total     68343500                       # number of ReadCleanReq MSHR miss cycles
system.l2.ReadSharedReq_mshr_miss_latency::.cpu.data      9998000                       # number of ReadSharedReq MSHR miss cycles
system.l2.ReadSharedReq_mshr_miss_latency::total      9998000                       # number of ReadSharedReq MSHR miss cycles
system.l2.demand_mshr_miss_latency::.cpu.inst     68343500                       # number of demand (read+write) MSHR miss cycles
system.l2.demand_mshr_miss_latency::.cpu.data   4253664500                       # number of demand (read+write) MSHR miss cycles
system.l2.demand_mshr_miss_latency::total   4322008000                       # number of demand (read+write) MSHR miss cycles
system.l2.overall_mshr_miss_latency::.cpu.inst     68343500                       # number of overall MSHR miss cycles
system.l2.overall_mshr_miss_latency::.cpu.data   4253664500                       # number of overall MSHR miss cycles
system.l2.overall_mshr_miss_latency::.l2.prefetcher 176481175603                       # number of overall MSHR miss cycles
system.l2.overall_mshr_miss_latency::total 180803183603                       # number of overall MSHR miss cycles
system.l2.HardPFReq_mshr_miss_rate::.l2.prefetcher          inf                       # mshr miss rate for HardPFReq accesses
system.l2.HardPFReq_mshr_miss_rate::total          inf                       # mshr miss rate for HardPFReq accesses
system.l2.UpgradeReq_mshr_miss_rate::.cpu.data            1                       # mshr miss rate for UpgradeReq accesses
system.l2.UpgradeReq_mshr_miss_rate::total            1                       # mshr miss rate for UpgradeReq accesses
system.l2.ReadExReq_mshr_miss_rate::.cpu.data     0.015691                       # mshr miss rate for ReadExReq accesses
system.l2.ReadExReq_mshr_miss_rate::total     0.015691                       # mshr miss rate for ReadExReq accesses
system.l2.ReadCleanReq_mshr_miss_rate::.cpu.inst     0.931990                       # mshr miss rate for ReadCleanReq accesses
system.l2.ReadCleanReq_mshr_miss_rate::total     0.931990                       # mshr miss rate for ReadCleanReq accesses
system.l2.ReadSharedReq_mshr_miss_rate::.cpu.data     0.561576                       # mshr miss rate for ReadSharedReq accesses
system.l2.ReadSharedReq_mshr_miss_rate::total     0.561576                       # mshr miss rate for ReadSharedReq accesses
system.l2.demand_mshr_miss_rate::.cpu.inst     0.931990                       # mshr miss rate for demand accesses
system.l2.demand_mshr_miss_rate::.cpu.data     0.015738                       # mshr miss rate for demand accesses
system.l2.demand_mshr_miss_rate::total       0.016048                       # mshr miss rate for demand accesses
system.l2.overall_mshr_miss_rate::.cpu.inst     0.931990                       # mshr miss rate for overall accesses
system.l2.overall_mshr_miss_rate::.cpu.data     0.015738                       # mshr miss rate for overall accesses
system.l2.overall_mshr_miss_rate::.l2.prefetcher          inf                       # mshr miss rate for overall accesses
system.l2.overall_mshr_miss_rate::total      1.000226                       # mshr miss rate for overall accesses
system.l2.HardPFReq_avg_mshr_miss_latency::.l2.prefetcher 76369.485818                       # average HardPFReq mshr miss latency
system.l2.HardPFReq_avg_mshr_miss_latency::total 76369.485818                       # average HardPFReq mshr miss latency
system.l2.UpgradeReq_avg_mshr_miss_latency::.cpu.data        30500                       # average UpgradeReq mshr miss latency
system.l2.UpgradeReq_avg_mshr_miss_latency::total        30500                       # average UpgradeReq mshr miss latency
system.l2.ReadExReq_avg_mshr_miss_latency::.cpu.data 115229.349951                       # average ReadExReq mshr miss latency
system.l2.ReadExReq_avg_mshr_miss_latency::total 115229.349951                       # average ReadExReq mshr miss latency
system.l2.ReadCleanReq_avg_mshr_miss_latency::.cpu.inst 92356.081081                       # average ReadCleanReq mshr miss latency
system.l2.ReadCleanReq_avg_mshr_miss_latency::total 92356.081081                       # average ReadCleanReq mshr miss latency
system.l2.ReadSharedReq_avg_mshr_miss_latency::.cpu.data 87701.754386                       # average ReadSharedReq mshr miss latency
system.l2.ReadSharedReq_avg_mshr_miss_latency::total 87701.754386                       # average ReadSharedReq mshr miss latency
system.l2.demand_avg_mshr_miss_latency::.cpu.inst 92356.081081                       # average overall mshr miss latency
system.l2.demand_avg_mshr_miss_latency::.cpu.data 115144.402036                       # average overall mshr miss latency
system.l2.demand_avg_mshr_miss_latency::total 114696.884454                       # average overall mshr miss latency
system.l2.overall_avg_mshr_miss_latency::.cpu.inst 92356.081081                       # average overall mshr miss latency
system.l2.overall_avg_mshr_miss_latency::.cpu.data 115144.402036                       # average overall mshr miss latency
system.l2.overall_avg_mshr_miss_latency::.l2.prefetcher 76369.485818                       # average overall mshr miss latency
system.l2.overall_avg_mshr_miss_latency::total 76984.436305                       # average overall mshr miss latency
system.l2.replacements                        2314704                       # number of replacements
system.membus.snoop_filter.tot_requests       4662674                       # Total number of requests made to the snoop filter.
system.membus.snoop_filter.hit_single_requests      2314707                       # Number of requests hitting in the snoop filter with a single holder of the requested data.
system.membus.snoop_filter.hit_multi_requests            0                       # Number of requests hitting in the snoop filter with multiple (>1) holders of the requested data.
system.membus.snoop_filter.tot_snoops               0                       # Total number of snoops made to the snoop filter.
system.membus.snoop_filter.hit_single_snoops            0                       # Number of snoops hitting in the snoop filter with a single holder of the requested data.
system.membus.snoop_filter.hit_multi_snoops            0                       # Number of snoops hitting in the snoop filter with multiple (>1) holders of the requested data.
system.membus.pwrStateResidencyTicks::UNDEFINED 100000000000                       # Cumulative time (in ticks) in various power states
system.membus.trans_dist::ReadResp            2311135                       # Transaction distribution
system.membus.trans_dist::WritebackDirty      2314283                       # Transaction distribution
system.membus.trans_dist::CleanEvict              421                       # Transaction distribution
system.membus.trans_dist::UpgradeReq                2                       # Transaction distribution
system.membus.trans_dist::ReadExReq             36828                       # Transaction distribution
system.membus.trans_dist::ReadExResp            36828                       # Transaction distribution
system.membus.trans_dist::ReadCleanReq        2311140                       # Transaction distribution
system.membus.pkt_count_system.l2.mem_side::system.mem_ctrls0.port      3505327                       # Packet count per connected master and slave (bytes)
system.membus.pkt_count_system.l2.mem_side::system.mem_ctrls1.port      3505310                       # Packet count per connected master and slave (bytes)
system.membus.pkt_count_system.l2.mem_side::total      7010637                       # Packet count per connected master and slave (bytes)
system.membus.pkt_count::total                7010637                       # Packet count per connected master and slave (bytes)
system.membus.pkt_size_system.l2.mem_side::system.mem_ctrls0.port    149192256                       # Cumulative packet size per connected master and slave (bytes)
system.membus.pkt_size_system.l2.mem_side::system.mem_ctrls1.port    149191488                       # Cumulative packet size per connected master and slave (bytes)
system.membus.pkt_size_system.l2.mem_side::total    298383744                       # Cumulative packet size per connected master and slave (bytes)
system.membus.pkt_size::total               298383744                       # Cumulative packet size per connected master and slave (bytes)
system.membus.snoops                                0                       # Total snoops (count)
system.membus.snoopTraffic                          0                       # Total snoop traffic (bytes)
system.membus.snoop_fanout::samples           2347970                       # Request fanout histogram
system.membus.snoop_fanout::mean                    0                       # Request fanout histogram
system.membus.snoop_fanout::stdev                   0                       # Request fanout histogram
system.membus.snoop_fanout::underflows              0      0.00%      0.00% # Request fanout histogram
system.membus.snoop_fanout::0                 2347970    100.00%    100.00% # Request fanout histogram
system.membus.snoop_fanout::1                       0      0.00%    100.00% # Request fanout histogram
system.membus.snoop_fanout::overflows               0      0.00%    100.00% # Request fanout histogram
system.membus.snoop_fanout::min_value               0                       # Request fanout histogram
system.membus.snoop_fanout::max_value               0                       # Request fanout histogram
system.membus.snoop_fanout::total             2347970                       # Request fanout histogram
system.membus.reqLayer2.occupancy          8024342898                       # Layer occupancy (ticks)
system.membus.reqLayer2.utilization               8.0                       # Layer utilization (%)
system.membus.reqLayer3.occupancy          8024240284                       # Layer occupancy (ticks)
system.membus.reqLayer3.utilization               8.0                       # Layer utilization (%)
system.membus.respLayer1.occupancy        12666082379                       # Layer occupancy (ticks)
system.membus.respLayer1.utilization             12.7                       # Layer utilization (%)
system.tol2bus.snoop_filter.tot_requests      4694579                       # Total number of requests made to the snoop filter.
system.tol2bus.snoop_filter.hit_single_requests      2346538                       # Number of requests hitting in the snoop filter with a single holder of the requested data.
system.tol2bus.snoop_filter.hit_multi_requests            5                       # Number of requests hitting in the snoop filter with multiple (>1) holders of the requested data.
system.tol2bus.snoop_filter.tot_snoops            602                       # Total number of snoops made to the snoop filter.
system.tol2bus.snoop_filter.hit_single_snoops          602                       # Number of snoops hitting in the snoop filter with a single holder of the requested data.
system.tol2bus.snoop_filter.hit_multi_snoops            0                       # Number of snoops hitting in the snoop filter with multiple (>1) holders of the requested data.
system.tol2bus.pwrStateResidencyTicks::UNDEFINED 100000000000                       # Cumulative time (in ticks) in various power states
system.tol2bus.trans_dist::ReadResp               999                       # Transaction distribution
system.tol2bus.trans_dist::WritebackDirty      4660398                       # Transaction distribution
system.tol2bus.trans_dist::WritebackClean          423                       # Transaction distribution
system.tol2bus.trans_dist::CleanEvict             421                       # Transaction distribution
system.tol2bus.trans_dist::HardPFReq          2445400                       # Transaction distribution
system.tol2bus.trans_dist::UpgradeReq               2                       # Transaction distribution
system.tol2bus.trans_dist::UpgradeResp              2                       # Transaction distribution
system.tol2bus.trans_dist::ReadExReq          2347040                       # Transaction distribution
system.tol2bus.trans_dist::ReadExResp         2347039                       # Transaction distribution
system.tol2bus.trans_dist::ReadCleanReq           796                       # Transaction distribution
system.tol2bus.trans_dist::ReadSharedReq          203                       # Transaction distribution
system.tol2bus.pkt_count_system.cpu.icache.mem_side::system.l2.cpu_side         1910                       # Packet count per connected master and slave (bytes)
system.tol2bus.pkt_count_system.cpu.dcache.mem_side::system.l2.cpu_side      7040707                       # Packet count per connected master and slave (bytes)
system.tol2bus.pkt_count::total               7042617                       # Packet count per connected master and slave (bytes)
system.tol2bus.pkt_size_system.cpu.icache.mem_side::system.l2.cpu_side        71296                       # Cumulative packet size per connected master and slave (bytes)
system.tol2bus.pkt_size_system.cpu.dcache.mem_side::system.l2.cpu_side    300381440                       # Cumulative packet size per connected master and slave (bytes)
system.tol2bus.pkt_size::total              300452736                       # Cumulative packet size per connected master and slave (bytes)
system.tol2bus.snoops                         4760106                       # Total snoops (count)
system.tol2bus.snoopTraffic                 148114240                       # Total snoop traffic (bytes)
system.tol2bus.snoop_fanout::samples          7108145                       # Request fanout histogram
system.tol2bus.snoop_fanout::mean            0.000085                       # Request fanout histogram
system.tol2bus.snoop_fanout::stdev           0.009241                       # Request fanout histogram
system.tol2bus.snoop_fanout::underflows             0      0.00%      0.00% # Request fanout histogram
system.tol2bus.snoop_fanout::0                7107538     99.99%     99.99% # Request fanout histogram
system.tol2bus.snoop_fanout::1                    607      0.01%    100.00% # Request fanout histogram
system.tol2bus.snoop_fanout::2                      0      0.00%    100.00% # Request fanout histogram
system.tol2bus.snoop_fanout::3                      0      0.00%    100.00% # Request fanout histogram
system.tol2bus.snoop_fanout::4                      0      0.00%    100.00% # Request fanout histogram
system.tol2bus.snoop_fanout::overflows              0      0.00%    100.00% # Request fanout histogram
system.tol2bus.snoop_fanout::min_value              0                       # Request fanout histogram
system.tol2bus.snoop_fanout::max_value              1                       # Request fanout histogram
system.tol2bus.snoop_fanout::total            7108145                       # Request fanout histogram
system.tol2bus.reqLayer0.occupancy         4693827500                       # Layer occupancy (ticks)
system.tol2bus.reqLayer0.utilization              4.7                       # Layer utilization (%)
system.tol2bus.respLayer0.occupancy           1194000                       # Layer occupancy (ticks)
system.tol2bus.respLayer0.utilization             0.0                       # Layer utilization (%)
system.tol2bus.respLayer1.occupancy        3520864000                       # Layer occupancy (ticks)
system.tol2bus.respLayer1.utilization             3.5                       # Layer utilization (%)

---------- End Simulation Statistics   ----------
