
---------- Begin Simulation Statistics ----------
sim_seconds                                  0.100000                       # Number of seconds simulated
sim_ticks                                100000000000                       # Number of ticks simulated
final_tick                               100000000000                       # Number of ticks from beginning of simulation (restored from checkpoints and never reset)
sim_freq                                 1000000000000                       # Frequency of simulated ticks
host_inst_rate                                  27993                       # Simulator instruction rate (inst/s)
host_op_rate                                    56069                       # Simulator op (including micro ops) rate (op/s)
host_tick_rate                               21232137                       # Simulator tick rate (ticks/s)
host_mem_usage                               67441440                       # Number of bytes of host memory used
host_seconds                                  4709.84                       # Real time elapsed on the host
sim_insts                                   131842700                       # Number of instructions simulated
sim_ops                                     264076816                       # Number of ops (including micro ops) simulated
system.voltage_domain.voltage                       1                       # Voltage in Volts
system.clk_domain.clock                          1000                       # Clock period in ticks
system.mem_ctrls0.pwrStateResidencyTicks::UNDEFINED 100000000000                       # Cumulative time (in ticks) in various power states
system.mem_ctrls0.bytes_read::.cpu.inst        214784                       # Number of bytes read from this memory
system.mem_ctrls0.bytes_read::.cpu.data        412736                       # Number of bytes read from this memory
system.mem_ctrls0.bytes_read::.l2.prefetcher       596416                       # Number of bytes read from this memory
system.mem_ctrls0.bytes_read::total           1223936                       # Number of bytes read from this memory
system.mem_ctrls0.bytes_inst_read::.cpu.inst       214784                       # Number of instructions bytes read from this memory
system.mem_ctrls0.bytes_inst_read::total       214784                       # Number of instructions bytes read from this memory
system.mem_ctrls0.bytes_written::.writebacks       119808                       # Number of bytes written to this memory
system.mem_ctrls0.bytes_written::total         119808                       # Number of bytes written to this memory
system.mem_ctrls0.num_reads::.cpu.inst           3356                       # Number of read requests responded to by this memory
system.mem_ctrls0.num_reads::.cpu.data           6449                       # Number of read requests responded to by this memory
system.mem_ctrls0.num_reads::.l2.prefetcher         9319                       # Number of read requests responded to by this memory
system.mem_ctrls0.num_reads::total              19124                       # Number of read requests responded to by this memory
system.mem_ctrls0.num_writes::.writebacks         1872                       # Number of write requests responded to by this memory
system.mem_ctrls0.num_writes::total              1872                       # Number of write requests responded to by this memory
system.mem_ctrls0.bw_read::.cpu.inst          2147840                       # Total read bandwidth from this memory (bytes/s)
system.mem_ctrls0.bw_read::.cpu.data          4127360                       # Total read bandwidth from this memory (bytes/s)
system.mem_ctrls0.bw_read::.l2.prefetcher      5964160                       # Total read bandwidth from this memory (bytes/s)
system.mem_ctrls0.bw_read::total             12239360                       # Total read bandwidth from this memory (bytes/s)
system.mem_ctrls0.bw_inst_read::.cpu.inst      2147840                       # Instruction read bandwidth from this memory (bytes/s)
system.mem_ctrls0.bw_inst_read::total         2147840                       # Instruction read bandwidth from this memory (bytes/s)
system.mem_ctrls0.bw_write::.writebacks       1198080                       # Write bandwidth from this memory (bytes/s)
system.mem_ctrls0.bw_write::total             1198080                       # Write bandwidth from this memory (bytes/s)
system.mem_ctrls0.bw_total::.writebacks       1198080                       # Total bandwidth to/from this memory (bytes/s)
system.mem_ctrls0.bw_total::.cpu.inst         2147840                       # Total bandwidth to/from this memory (bytes/s)
system.mem_ctrls0.bw_total::.cpu.data         4127360                       # Total bandwidth to/from this memory (bytes/s)
system.mem_ctrls0.bw_total::.l2.prefetcher      5964160                       # Total bandwidth to/from this memory (bytes/s)
system.mem_ctrls0.bw_total::total            13437440                       # Total bandwidth to/from this memory (bytes/s)
system.mem_ctrls0.avgPriority_.writebacks::samples      1872.00                       # Average QoS priority value for accepted requests
system.mem_ctrls0.avgPriority_.cpu.inst::samples      3356.00                       # Average QoS priority value for accepted requests
system.mem_ctrls0.avgPriority_.cpu.data::samples      6443.00                       # Average QoS priority value for accepted requests
system.mem_ctrls0.avgPriority_.l2.prefetcher::samples      9317.00                       # Average QoS priority value for accepted requests
system.mem_ctrls0.priorityMinLatency     0.000000017492                       # per QoS priority minimum request to response latency (s)
system.mem_ctrls0.priorityMaxLatency     0.006196471652                       # per QoS priority maximum request to response latency (s)
system.mem_ctrls0.numReadWriteTurnArounds          103                       # Number of turnarounds from READ to WRITE
system.mem_ctrls0.numWriteReadTurnArounds          103                       # Number of turnarounds from WRITE to READ
system.mem_ctrls0.numStayReadState              41132                       # Number of times bus staying in READ state
system.mem_ctrls0.numStayWriteState              1736                       # Number of times bus staying in WRITE state
system.mem_ctrls0.readReqs                      19124                       # Number of read requests accepted
system.mem_ctrls0.writeReqs                      1872                       # Number of write requests accepted
system.mem_ctrls0.readBursts                    19124                       # Number of DRAM read bursts, including those serviced by the write queue
system.mem_ctrls0.writeBursts                    1872                       # Number of DRAM write bursts, including those merged in the write queue
system.mem_ctrls0.bytesReadDRAM               1223424                       # Total number of bytes read from DRAM
system.mem_ctrls0.bytesReadWrQ                    512                       # Total number of bytes read from write queue
system.mem_ctrls0.bytesWritten                 116288                       # Total number of bytes written to DRAM
system.mem_ctrls0.bytesReadSys                1223936                       # Total read bytes from the system interface side
system.mem_ctrls0.bytesWrittenSys              119808                       # Total written bytes from the system interface side
system.mem_ctrls0.servicedByWrQ                     8                       # Number of DRAM read bursts serviced by the write queue
system.mem_ctrls0.mergedWrBursts                    0                       # Number of DRAM write bursts merged with an existing one
system.mem_ctrls0.neitherReadNorWriteReqs            0                       # Number of requests that are neither read nor write
system.mem_ctrls0.perBankRdBursts::0              568                       # Per bank write bursts
system.mem_ctrls0.perBankRdBursts::1              440                       # Per bank write bursts
system.mem_ctrls0.perBankRdBursts::2              358                       # Per bank write bursts
system.mem_ctrls0.perBankRdBursts::3              509                       # Per bank write bursts
system.mem_ctrls0.perBankRdBursts::4              570                       # Per bank write bursts
system.mem_ctrls0.perBankRdBursts::5              622                       # Per bank write bursts
system.mem_ctrls0.perBankRdBursts::6              605                       # Per bank write bursts
system.mem_ctrls0.perBankRdBursts::7              737                       # Per bank write bursts
system.mem_ctrls0.perBankRdBursts::8              583                       # Per bank write bursts
system.mem_ctrls0.perBankRdBursts::9              516                       # Per bank write bursts
system.mem_ctrls0.perBankRdBursts::10             665                       # Per bank write bursts
system.mem_ctrls0.perBankRdBursts::11             612                       # Per bank write bursts
system.mem_ctrls0.perBankRdBursts::12             544                       # Per bank write bursts
system.mem_ctrls0.perBankRdBursts::13             501                       # Per bank write bursts
system.mem_ctrls0.perBankRdBursts::14             530                       # Per bank write bursts
system.mem_ctrls0.perBankRdBursts::15             546                       # Per bank write bursts
system.mem_ctrls0.perBankRdBursts::16             555                       # Per bank write bursts
system.mem_ctrls0.perBankRdBursts::17             575                       # Per bank write bursts
system.mem_ctrls0.perBankRdBursts::18             679                       # Per bank write bursts
system.mem_ctrls0.perBankRdBursts::19             829                       # Per bank write bursts
system.mem_ctrls0.perBankRdBursts::20             658                       # Per bank write bursts
system.mem_ctrls0.perBankRdBursts::21             878                       # Per bank write bursts
system.mem_ctrls0.perBankRdBursts::22             869                       # Per bank write bursts
system.mem_ctrls0.perBankRdBursts::23            1035                       # Per bank write bursts
system.mem_ctrls0.perBankRdBursts::24             773                       # Per bank write bursts
system.mem_ctrls0.perBankRdBursts::25             682                       # Per bank write bursts
system.mem_ctrls0.perBankRdBursts::26             597                       # Per bank write bursts
system.mem_ctrls0.perBankRdBursts::27             365                       # Per bank write bursts
system.mem_ctrls0.perBankRdBursts::28             390                       # Per bank write bursts
system.mem_ctrls0.perBankRdBursts::29             479                       # Per bank write bursts
system.mem_ctrls0.perBankRdBursts::30             364                       # Per bank write bursts
system.mem_ctrls0.perBankRdBursts::31             482                       # Per bank write bursts
system.mem_ctrls0.perBankWrBursts::0               23                       # Per bank write bursts
system.mem_ctrls0.perBankWrBursts::1               13                       # Per bank write bursts
system.mem_ctrls0.perBankWrBursts::2                9                       # Per bank write bursts
system.mem_ctrls0.perBankWrBursts::3               59                       # Per bank write bursts
system.mem_ctrls0.perBankWrBursts::4               54                       # Per bank write bursts
system.mem_ctrls0.perBankWrBursts::5              107                       # Per bank write bursts
system.mem_ctrls0.perBankWrBursts::6               96                       # Per bank write bursts
system.mem_ctrls0.perBankWrBursts::7              199                       # Per bank write bursts
system.mem_ctrls0.perBankWrBursts::8              142                       # Per bank write bursts
system.mem_ctrls0.perBankWrBursts::9               46                       # Per bank write bursts
system.mem_ctrls0.perBankWrBursts::10              85                       # Per bank write bursts
system.mem_ctrls0.perBankWrBursts::11               3                       # Per bank write bursts
system.mem_ctrls0.perBankWrBursts::12               3                       # Per bank write bursts
system.mem_ctrls0.perBankWrBursts::13               0                       # Per bank write bursts
system.mem_ctrls0.perBankWrBursts::14               0                       # Per bank write bursts
system.mem_ctrls0.perBankWrBursts::15               6                       # Per bank write bursts
system.mem_ctrls0.perBankWrBursts::16              34                       # Per bank write bursts
system.mem_ctrls0.perBankWrBursts::17              12                       # Per bank write bursts
system.mem_ctrls0.perBankWrBursts::18              49                       # Per bank write bursts
system.mem_ctrls0.perBankWrBursts::19              85                       # Per bank write bursts
system.mem_ctrls0.perBankWrBursts::20              80                       # Per bank write bursts
system.mem_ctrls0.perBankWrBursts::21             126                       # Per bank write bursts
system.mem_ctrls0.perBankWrBursts::22             160                       # Per bank write bursts
system.mem_ctrls0.perBankWrBursts::23             249                       # Per bank write bursts
system.mem_ctrls0.perBankWrBursts::24              38                       # Per bank write bursts
system.mem_ctrls0.perBankWrBursts::25              35                       # Per bank write bursts
system.mem_ctrls0.perBankWrBursts::26              38                       # Per bank write bursts
system.mem_ctrls0.perBankWrBursts::27              17                       # Per bank write bursts
system.mem_ctrls0.perBankWrBursts::28               8                       # Per bank write bursts
system.mem_ctrls0.perBankWrBursts::29               6                       # Per bank write bursts
system.mem_ctrls0.perBankWrBursts::30               0                       # Per bank write bursts
system.mem_ctrls0.perBankWrBursts::31              35                       # Per bank write bursts
system.mem_ctrls0.numRdRetry                        0                       # Number of times read queue was full causing retry
system.mem_ctrls0.numWrRetry                        0                       # Number of times write queue was full causing retry
system.mem_ctrls0.totGap                   7062194500                       # Total gap between requests
system.mem_ctrls0.readPktSize::0                    0                       # Read request sizes (log2)
system.mem_ctrls0.readPktSize::1                    0                       # Read request sizes (log2)
system.mem_ctrls0.readPktSize::2                    0                       # Read request sizes (log2)
system.mem_ctrls0.readPktSize::3                    0                       # Read request sizes (log2)
system.mem_ctrls0.readPktSize::4                    0                       # Read request sizes (log2)
system.mem_ctrls0.readPktSize::5                    0                       # Read request sizes (log2)
system.mem_ctrls0.readPktSize::6                19124                       # Read request sizes (log2)
system.mem_ctrls0.writePktSize::0                   0                       # Write request sizes (log2)
system.mem_ctrls0.writePktSize::1                   0                       # Write request sizes (log2)
system.mem_ctrls0.writePktSize::2                   0                       # Write request sizes (log2)
system.mem_ctrls0.writePktSize::3                   0                       # Write request sizes (log2)
system.mem_ctrls0.writePktSize::4                   0                       # Write request sizes (log2)
system.mem_ctrls0.writePktSize::5                   0                       # Write request sizes (log2)
system.mem_ctrls0.writePktSize::6                1872                       # Write request sizes (log2)
system.mem_ctrls0.rdQLenPdf::0                  15188                       # What read queue length does an incoming req see
system.mem_ctrls0.rdQLenPdf::1                   1675                       # What read queue length does an incoming req see
system.mem_ctrls0.rdQLenPdf::2                    812                       # What read queue length does an incoming req see
system.mem_ctrls0.rdQLenPdf::3                    614                       # What read queue length does an incoming req see
system.mem_ctrls0.rdQLenPdf::4                    398                       # What read queue length does an incoming req see
system.mem_ctrls0.rdQLenPdf::5                    117                       # What read queue length does an incoming req see
system.mem_ctrls0.rdQLenPdf::6                    108                       # What read queue length does an incoming req see
system.mem_ctrls0.rdQLenPdf::7                    103                       # What read queue length does an incoming req see
system.mem_ctrls0.rdQLenPdf::8                    101                       # What read queue length does an incoming req see
system.mem_ctrls0.rdQLenPdf::9                      0                       # What read queue length does an incoming req see
system.mem_ctrls0.rdQLenPdf::10                     0                       # What read queue length does an incoming req see
system.mem_ctrls0.rdQLenPdf::11                     0                       # What read queue length does an incoming req see
system.mem_ctrls0.rdQLenPdf::12                     0                       # What read queue length does an incoming req see
system.mem_ctrls0.rdQLenPdf::13                     0                       # What read queue length does an incoming req see
system.mem_ctrls0.rdQLenPdf::14                     0                       # What read queue length does an incoming req see
system.mem_ctrls0.rdQLenPdf::15                     0                       # What read queue length does an incoming req see
system.mem_ctrls0.rdQLenPdf::16                     0                       # What read queue length does an incoming req see
system.mem_ctrls0.rdQLenPdf::17                     0                       # What read queue length does an incoming req see
system.mem_ctrls0.rdQLenPdf::18                     0                       # What read queue length does an incoming req see
system.mem_ctrls0.rdQLenPdf::19                     0                       # What read queue length does an incoming req see
system.mem_ctrls0.rdQLenPdf::20                     0                       # What read queue length does an incoming req see
system.mem_ctrls0.rdQLenPdf::21                     0                       # What read queue length does an incoming req see
system.mem_ctrls0.rdQLenPdf::22                     0                       # What read queue length does an incoming req see
system.mem_ctrls0.rdQLenPdf::23                     0                       # What read queue length does an incoming req see
system.mem_ctrls0.rdQLenPdf::24                     0                       # What read queue length does an incoming req see
system.mem_ctrls0.rdQLenPdf::25                     0                       # What read queue length does an incoming req see
system.mem_ctrls0.rdQLenPdf::26                     0                       # What read queue length does an incoming req see
system.mem_ctrls0.rdQLenPdf::27                     0                       # What read queue length does an incoming req see
system.mem_ctrls0.rdQLenPdf::28                     0                       # What read queue length does an incoming req see
system.mem_ctrls0.rdQLenPdf::29                     0                       # What read queue length does an incoming req see
system.mem_ctrls0.rdQLenPdf::30                     0                       # What read queue length does an incoming req see
system.mem_ctrls0.rdQLenPdf::31                     0                       # What read queue length does an incoming req see
system.mem_ctrls0.rdQLenPdf::32                     0                       # What read queue length does an incoming req see
system.mem_ctrls0.rdQLenPdf::33                     0                       # What read queue length does an incoming req see
system.mem_ctrls0.rdQLenPdf::34                     0                       # What read queue length does an incoming req see
system.mem_ctrls0.rdQLenPdf::35                     0                       # What read queue length does an incoming req see
system.mem_ctrls0.rdQLenPdf::36                     0                       # What read queue length does an incoming req see
system.mem_ctrls0.rdQLenPdf::37                     0                       # What read queue length does an incoming req see
system.mem_ctrls0.rdQLenPdf::38                     0                       # What read queue length does an incoming req see
system.mem_ctrls0.rdQLenPdf::39                     0                       # What read queue length does an incoming req see
system.mem_ctrls0.rdQLenPdf::40                     0                       # What read queue length does an incoming req see
system.mem_ctrls0.rdQLenPdf::41                     0                       # What read queue length does an incoming req see
system.mem_ctrls0.rdQLenPdf::42                     0                       # What read queue length does an incoming req see
system.mem_ctrls0.rdQLenPdf::43                     0                       # What read queue length does an incoming req see
system.mem_ctrls0.rdQLenPdf::44                     0                       # What read queue length does an incoming req see
system.mem_ctrls0.rdQLenPdf::45                     0                       # What read queue length does an incoming req see
system.mem_ctrls0.rdQLenPdf::46                     0                       # What read queue length does an incoming req see
system.mem_ctrls0.rdQLenPdf::47                     0                       # What read queue length does an incoming req see
system.mem_ctrls0.rdQLenPdf::48                     0                       # What read queue length does an incoming req see
system.mem_ctrls0.rdQLenPdf::49                     0                       # What read queue length does an incoming req see
system.mem_ctrls0.rdQLenPdf::50                     0                       # What read queue length does an incoming req see
system.mem_ctrls0.rdQLenPdf::51                     0                       # What read queue length does an incoming req see
system.mem_ctrls0.rdQLenPdf::52                     0                       # What read queue length does an incoming req see
system.mem_ctrls0.rdQLenPdf::53                     0                       # What read queue length does an incoming req see
system.mem_ctrls0.rdQLenPdf::54                     0                       # What read queue length does an incoming req see
system.mem_ctrls0.rdQLenPdf::55                     0                       # What read queue length does an incoming req see
system.mem_ctrls0.rdQLenPdf::56                     0                       # What read queue length does an incoming req see
system.mem_ctrls0.rdQLenPdf::57                     0                       # What read queue length does an incoming req see
system.mem_ctrls0.rdQLenPdf::58                     0                       # What read queue length does an incoming req see
system.mem_ctrls0.rdQLenPdf::59                     0                       # What read queue length does an incoming req see
system.mem_ctrls0.rdQLenPdf::60                     0                       # What read queue length does an incoming req see
system.mem_ctrls0.rdQLenPdf::61                     0                       # What read queue length does an incoming req see
system.mem_ctrls0.rdQLenPdf::62                     0                       # What read queue length does an incoming req see
system.mem_ctrls0.rdQLenPdf::63                     0                       # What read queue length does an incoming req see
system.mem_ctrls0.wrQLenPdf::0                      1                       # What write queue length does an incoming req see
system.mem_ctrls0.wrQLenPdf::1                      1                       # What write queue length does an incoming req see
system.mem_ctrls0.wrQLenPdf::2                      1                       # What write queue length does an incoming req see
system.mem_ctrls0.wrQLenPdf::3                      1                       # What write queue length does an incoming req see
system.mem_ctrls0.wrQLenPdf::4                      1                       # What write queue length does an incoming req see
system.mem_ctrls0.wrQLenPdf::5                      1                       # What write queue length does an incoming req see
system.mem_ctrls0.wrQLenPdf::6                      1                       # What write queue length does an incoming req see
system.mem_ctrls0.wrQLenPdf::7                      1                       # What write queue length does an incoming req see
system.mem_ctrls0.wrQLenPdf::8                      1                       # What write queue length does an incoming req see
system.mem_ctrls0.wrQLenPdf::9                      1                       # What write queue length does an incoming req see
system.mem_ctrls0.wrQLenPdf::10                     1                       # What write queue length does an incoming req see
system.mem_ctrls0.wrQLenPdf::11                     1                       # What write queue length does an incoming req see
system.mem_ctrls0.wrQLenPdf::12                     1                       # What write queue length does an incoming req see
system.mem_ctrls0.wrQLenPdf::13                     1                       # What write queue length does an incoming req see
system.mem_ctrls0.wrQLenPdf::14                     1                       # What write queue length does an incoming req see
system.mem_ctrls0.wrQLenPdf::15                     1                       # What write queue length does an incoming req see
system.mem_ctrls0.wrQLenPdf::16                     1                       # What write queue length does an incoming req see
system.mem_ctrls0.wrQLenPdf::17                     1                       # What write queue length does an incoming req see
system.mem_ctrls0.wrQLenPdf::18                     1                       # What write queue length does an incoming req see
system.mem_ctrls0.wrQLenPdf::19                     1                       # What write queue length does an incoming req see
system.mem_ctrls0.wrQLenPdf::20                     1                       # What write queue length does an incoming req see
system.mem_ctrls0.wrQLenPdf::21                     1                       # What write queue length does an incoming req see
system.mem_ctrls0.wrQLenPdf::22                     1                       # What write queue length does an incoming req see
system.mem_ctrls0.wrQLenPdf::23                     1                       # What write queue length does an incoming req see
system.mem_ctrls0.wrQLenPdf::24                     1                       # What write queue length does an incoming req see
system.mem_ctrls0.wrQLenPdf::25                     1                       # What write queue length does an incoming req see
system.mem_ctrls0.wrQLenPdf::26                     1                       # What write queue length does an incoming req see
system.mem_ctrls0.wrQLenPdf::27                     1                       # What write queue length does an incoming req see
system.mem_ctrls0.wrQLenPdf::28                     1                       # What write queue length does an incoming req see
system.mem_ctrls0.wrQLenPdf::29                     1                       # What write queue length does an incoming req see
system.mem_ctrls0.wrQLenPdf::30                     1                       # What write queue length does an incoming req see
system.mem_ctrls0.wrQLenPdf::31                     1                       # What write queue length does an incoming req see
system.mem_ctrls0.wrQLenPdf::32                     1                       # What write queue length does an incoming req see
system.mem_ctrls0.wrQLenPdf::33                     1                       # What write queue length does an incoming req see
system.mem_ctrls0.wrQLenPdf::34                     1                       # What write queue length does an incoming req see
system.mem_ctrls0.wrQLenPdf::35                     1                       # What write queue length does an incoming req see
system.mem_ctrls0.wrQLenPdf::36                     1                       # What write queue length does an incoming req see
system.mem_ctrls0.wrQLenPdf::37                     1                       # What write queue length does an incoming req see
system.mem_ctrls0.wrQLenPdf::38                     1                       # What write queue length does an incoming req see
system.mem_ctrls0.wrQLenPdf::39                     1                       # What write queue length does an incoming req see
system.mem_ctrls0.wrQLenPdf::40                     1                       # What write queue length does an incoming req see
system.mem_ctrls0.wrQLenPdf::41                     1                       # What write queue length does an incoming req see
system.mem_ctrls0.wrQLenPdf::42                     1                       # What write queue length does an incoming req see
system.mem_ctrls0.wrQLenPdf::43                     1                       # What write queue length does an incoming req see
system.mem_ctrls0.wrQLenPdf::44                     1                       # What write queue length does an incoming req see
system.mem_ctrls0.wrQLenPdf::45                     1                       # What write queue length does an incoming req see
system.mem_ctrls0.wrQLenPdf::46                     1                       # What write queue length does an incoming req see
system.mem_ctrls0.wrQLenPdf::47                    72                       # What write queue length does an incoming req see
system.mem_ctrls0.wrQLenPdf::48                    76                       # What write queue length does an incoming req see
system.mem_ctrls0.wrQLenPdf::49                   101                       # What write queue length does an incoming req see
system.mem_ctrls0.wrQLenPdf::50                   104                       # What write queue length does an incoming req see
system.mem_ctrls0.wrQLenPdf::51                   105                       # What write queue length does an incoming req see
system.mem_ctrls0.wrQLenPdf::52                   108                       # What write queue length does an incoming req see
system.mem_ctrls0.wrQLenPdf::53                   105                       # What write queue length does an incoming req see
system.mem_ctrls0.wrQLenPdf::54                   106                       # What write queue length does an incoming req see
system.mem_ctrls0.wrQLenPdf::55                   106                       # What write queue length does an incoming req see
system.mem_ctrls0.wrQLenPdf::56                   104                       # What write queue length does an incoming req see
system.mem_ctrls0.wrQLenPdf::57                   105                       # What write queue length does an incoming req see
system.mem_ctrls0.wrQLenPdf::58                   105                       # What write queue length does an incoming req see
system.mem_ctrls0.wrQLenPdf::59                   106                       # What write queue length does an incoming req see
system.mem_ctrls0.wrQLenPdf::60                   103                       # What write queue length does an incoming req see
system.mem_ctrls0.wrQLenPdf::61                   108                       # What write queue length does an incoming req see
system.mem_ctrls0.wrQLenPdf::62                   103                       # What write queue length does an incoming req see
system.mem_ctrls0.wrQLenPdf::63                   103                       # What write queue length does an incoming req see
system.mem_ctrls0.wrQLenPdf::64                   103                       # What write queue length does an incoming req see
system.mem_ctrls0.wrQLenPdf::65                     2                       # What write queue length does an incoming req see
system.mem_ctrls0.wrQLenPdf::66                     0                       # What write queue length does an incoming req see
system.mem_ctrls0.wrQLenPdf::67                     0                       # What write queue length does an incoming req see
system.mem_ctrls0.wrQLenPdf::68                     0                       # What write queue length does an incoming req see
system.mem_ctrls0.wrQLenPdf::69                     0                       # What write queue length does an incoming req see
system.mem_ctrls0.wrQLenPdf::70                     0                       # What write queue length does an incoming req see
system.mem_ctrls0.wrQLenPdf::71                     0                       # What write queue length does an incoming req see
system.mem_ctrls0.wrQLenPdf::72                     0                       # What write queue length does an incoming req see
system.mem_ctrls0.wrQLenPdf::73                     0                       # What write queue length does an incoming req see
system.mem_ctrls0.wrQLenPdf::74                     0                       # What write queue length does an incoming req see
system.mem_ctrls0.wrQLenPdf::75                     0                       # What write queue length does an incoming req see
system.mem_ctrls0.wrQLenPdf::76                     0                       # What write queue length does an incoming req see
system.mem_ctrls0.wrQLenPdf::77                     0                       # What write queue length does an incoming req see
system.mem_ctrls0.wrQLenPdf::78                     0                       # What write queue length does an incoming req see
system.mem_ctrls0.wrQLenPdf::79                     0                       # What write queue length does an incoming req see
system.mem_ctrls0.wrQLenPdf::80                     0                       # What write queue length does an incoming req see
system.mem_ctrls0.wrQLenPdf::81                     0                       # What write queue length does an incoming req see
system.mem_ctrls0.wrQLenPdf::82                     0                       # What write queue length does an incoming req see
system.mem_ctrls0.wrQLenPdf::83                     0                       # What write queue length does an incoming req see
system.mem_ctrls0.wrQLenPdf::84                     0                       # What write queue length does an incoming req see
system.mem_ctrls0.wrQLenPdf::85                     0                       # What write queue length does an incoming req see
system.mem_ctrls0.wrQLenPdf::86                     0                       # What write queue length does an incoming req see
system.mem_ctrls0.wrQLenPdf::87                     0                       # What write queue length does an incoming req see
system.mem_ctrls0.wrQLenPdf::88                     0                       # What write queue length does an incoming req see
system.mem_ctrls0.wrQLenPdf::89                     0                       # What write queue length does an incoming req see
system.mem_ctrls0.wrQLenPdf::90                     0                       # What write queue length does an incoming req see
system.mem_ctrls0.wrQLenPdf::91                     0                       # What write queue length does an incoming req see
system.mem_ctrls0.wrQLenPdf::92                     0                       # What write queue length does an incoming req see
system.mem_ctrls0.wrQLenPdf::93                     0                       # What write queue length does an incoming req see
system.mem_ctrls0.wrQLenPdf::94                     0                       # What write queue length does an incoming req see
system.mem_ctrls0.wrQLenPdf::95                     0                       # What write queue length does an incoming req see
system.mem_ctrls0.wrQLenPdf::96                     0                       # What write queue length does an incoming req see
system.mem_ctrls0.wrQLenPdf::97                     0                       # What write queue length does an incoming req see
system.mem_ctrls0.wrQLenPdf::98                     0                       # What write queue length does an incoming req see
system.mem_ctrls0.wrQLenPdf::99                     0                       # What write queue length does an incoming req see
system.mem_ctrls0.wrQLenPdf::100                    0                       # What write queue length does an incoming req see
system.mem_ctrls0.wrQLenPdf::101                    0                       # What write queue length does an incoming req see
system.mem_ctrls0.wrQLenPdf::102                    0                       # What write queue length does an incoming req see
system.mem_ctrls0.wrQLenPdf::103                    0                       # What write queue length does an incoming req see
system.mem_ctrls0.wrQLenPdf::104                    0                       # What write queue length does an incoming req see
system.mem_ctrls0.wrQLenPdf::105                    0                       # What write queue length does an incoming req see
system.mem_ctrls0.wrQLenPdf::106                    0                       # What write queue length does an incoming req see
system.mem_ctrls0.wrQLenPdf::107                    0                       # What write queue length does an incoming req see
system.mem_ctrls0.wrQLenPdf::108                    0                       # What write queue length does an incoming req see
system.mem_ctrls0.wrQLenPdf::109                    0                       # What write queue length does an incoming req see
system.mem_ctrls0.wrQLenPdf::110                    0                       # What write queue length does an incoming req see
system.mem_ctrls0.wrQLenPdf::111                    0                       # What write queue length does an incoming req see
system.mem_ctrls0.wrQLenPdf::112                    0                       # What write queue length does an incoming req see
system.mem_ctrls0.wrQLenPdf::113                    0                       # What write queue length does an incoming req see
system.mem_ctrls0.wrQLenPdf::114                    0                       # What write queue length does an incoming req see
system.mem_ctrls0.wrQLenPdf::115                    0                       # What write queue length does an incoming req see
system.mem_ctrls0.wrQLenPdf::116                    0                       # What write queue length does an incoming req see
system.mem_ctrls0.wrQLenPdf::117                    0                       # What write queue length does an incoming req see
system.mem_ctrls0.wrQLenPdf::118                    0                       # What write queue length does an incoming req see
system.mem_ctrls0.wrQLenPdf::119                    0                       # What write queue length does an incoming req see
system.mem_ctrls0.wrQLenPdf::120                    0                       # What write queue length does an incoming req see
system.mem_ctrls0.wrQLenPdf::121                    0                       # What write queue length does an incoming req see
system.mem_ctrls0.wrQLenPdf::122                    0                       # What write queue length does an incoming req see
system.mem_ctrls0.wrQLenPdf::123                    0                       # What write queue length does an incoming req see
system.mem_ctrls0.wrQLenPdf::124                    0                       # What write queue length does an incoming req see
system.mem_ctrls0.wrQLenPdf::125                    0                       # What write queue length does an incoming req see
system.mem_ctrls0.wrQLenPdf::126                    0                       # What write queue length does an incoming req see
system.mem_ctrls0.wrQLenPdf::127                    0                       # What write queue length does an incoming req see
system.mem_ctrls0.bytesPerActivate::samples         5309                       # Bytes accessed per row activation
system.mem_ctrls0.bytesPerActivate::mean   252.347335                       # Bytes accessed per row activation
system.mem_ctrls0.bytesPerActivate::gmean   151.178102                       # Bytes accessed per row activation
system.mem_ctrls0.bytesPerActivate::stdev   293.079160                       # Bytes accessed per row activation
system.mem_ctrls0.bytesPerActivate::0-127         2311     43.53%     43.53% # Bytes accessed per row activation
system.mem_ctrls0.bytesPerActivate::128-255         1360     25.62%     69.15% # Bytes accessed per row activation
system.mem_ctrls0.bytesPerActivate::256-383          526      9.91%     79.05% # Bytes accessed per row activation
system.mem_ctrls0.bytesPerActivate::384-511          239      4.50%     83.56% # Bytes accessed per row activation
system.mem_ctrls0.bytesPerActivate::512-639          158      2.98%     86.53% # Bytes accessed per row activation
system.mem_ctrls0.bytesPerActivate::640-767          126      2.37%     88.91% # Bytes accessed per row activation
system.mem_ctrls0.bytesPerActivate::768-895           93      1.75%     90.66% # Bytes accessed per row activation
system.mem_ctrls0.bytesPerActivate::896-1023           47      0.89%     91.54% # Bytes accessed per row activation
system.mem_ctrls0.bytesPerActivate::1024-1151          449      8.46%    100.00% # Bytes accessed per row activation
system.mem_ctrls0.bytesPerActivate::total         5309                       # Bytes accessed per row activation
system.mem_ctrls0.rdPerTurnAround::samples          103                       # Reads before turning the bus around for writes
system.mem_ctrls0.rdPerTurnAround::mean    185.485437                       # Reads before turning the bus around for writes
system.mem_ctrls0.rdPerTurnAround::gmean    51.293933                       # Reads before turning the bus around for writes
system.mem_ctrls0.rdPerTurnAround::stdev  1136.417529                       # Reads before turning the bus around for writes
system.mem_ctrls0.rdPerTurnAround::0-255           98     95.15%     95.15% # Reads before turning the bus around for writes
system.mem_ctrls0.rdPerTurnAround::256-511            3      2.91%     98.06% # Reads before turning the bus around for writes
system.mem_ctrls0.rdPerTurnAround::512-767            1      0.97%     99.03% # Reads before turning the bus around for writes
system.mem_ctrls0.rdPerTurnAround::11520-11775            1      0.97%    100.00% # Reads before turning the bus around for writes
system.mem_ctrls0.rdPerTurnAround::total          103                       # Reads before turning the bus around for writes
system.mem_ctrls0.wrPerTurnAround::samples          103                       # Writes before turning the bus around for reads
system.mem_ctrls0.wrPerTurnAround::mean     17.640777                       # Writes before turning the bus around for reads
system.mem_ctrls0.wrPerTurnAround::gmean    17.600595                       # Writes before turning the bus around for reads
system.mem_ctrls0.wrPerTurnAround::stdev     1.195206                       # Writes before turning the bus around for reads
system.mem_ctrls0.wrPerTurnAround::16              29     28.16%     28.16% # Writes before turning the bus around for reads
system.mem_ctrls0.wrPerTurnAround::17               3      2.91%     31.07% # Writes before turning the bus around for reads
system.mem_ctrls0.wrPerTurnAround::18              53     51.46%     82.52% # Writes before turning the bus around for reads
system.mem_ctrls0.wrPerTurnAround::19              14     13.59%     96.12% # Writes before turning the bus around for reads
system.mem_ctrls0.wrPerTurnAround::20               2      1.94%     98.06% # Writes before turning the bus around for reads
system.mem_ctrls0.wrPerTurnAround::21               2      1.94%    100.00% # Writes before turning the bus around for reads
system.mem_ctrls0.wrPerTurnAround::total          103                       # Writes before turning the bus around for reads
system.mem_ctrls0.masterReadBytes::.cpu.inst       214784                       # Per-master bytes read from memory
system.mem_ctrls0.masterReadBytes::.cpu.data       412352                       # Per-master bytes read from memory
system.mem_ctrls0.masterReadBytes::.l2.prefetcher       596288                       # Per-master bytes read from memory
system.mem_ctrls0.masterWriteBytes::.writebacks       116288                       # Per-master bytes write to memory
system.mem_ctrls0.masterReadRate::.cpu.inst 2147840.000000000000                       # Per-master bytes read from memory rate (Bytes/sec)
system.mem_ctrls0.masterReadRate::.cpu.data 4123520.000000000000                       # Per-master bytes read from memory rate (Bytes/sec)
system.mem_ctrls0.masterReadRate::.l2.prefetcher 5962880.000000000000                       # Per-master bytes read from memory rate (Bytes/sec)
system.mem_ctrls0.masterWriteRate::.writebacks 1162880.000000000000                       # Per-master bytes write to memory rate (Bytes/sec)
system.mem_ctrls0.masterReadAccesses::.cpu.inst         3356                       # Per-master read serviced memory accesses
system.mem_ctrls0.masterReadAccesses::.cpu.data         6449                       # Per-master read serviced memory accesses
system.mem_ctrls0.masterReadAccesses::.l2.prefetcher         9319                       # Per-master read serviced memory accesses
system.mem_ctrls0.masterWriteAccesses::.writebacks         1872                       # Per-master write serviced memory accesses
system.mem_ctrls0.masterReadTotalLat::.cpu.inst    179405296                       # Per-master read total memory access latency
system.mem_ctrls0.masterReadTotalLat::.cpu.data    293903526                       # Per-master read total memory access latency
system.mem_ctrls0.masterReadTotalLat::.l2.prefetcher    392484932                       # Per-master read total memory access latency
system.mem_ctrls0.masterWriteTotalLat::.writebacks 218596235319                       # Per-master write total memory access latency
system.mem_ctrls0.masterReadAvgLat::.cpu.inst     53458.07                       # Per-master read average memory access latency
system.mem_ctrls0.masterReadAvgLat::.cpu.data     45573.50                       # Per-master read average memory access latency
system.mem_ctrls0.masterReadAvgLat::.l2.prefetcher     42116.64                       # Per-master read average memory access latency
system.mem_ctrls0.masterWriteAvgLat::.writebacks 116771493.23                       # Per-master write average memory access latency
system.mem_ctrls0.totQLat                   531416682                       # Total ticks spent queuing
system.mem_ctrls0.totMemAccLat              865793754                       # Total ticks spent from burst creation until serviced by the DRAM
system.mem_ctrls0.totBusLat                  63694512                       # Total ticks spent in databus transfers
system.mem_ctrls0.avgQLat                    27799.58                       # Average queueing delay per DRAM burst
system.mem_ctrls0.avgBusLat                   3332.00                       # Average bus latency per DRAM burst
system.mem_ctrls0.avgMemAccLat               45291.58                       # Average memory access latency per DRAM burst
system.mem_ctrls0.avgRdBW                       12.23                       # Average DRAM read bandwidth in MiByte/s
system.mem_ctrls0.avgWrBW                        1.16                       # Average achieved write bandwidth in MiByte/s
system.mem_ctrls0.avgRdBWSys                    12.24                       # Average system read bandwidth in MiByte/s
system.mem_ctrls0.avgWrBWSys                     1.20                       # Average system write bandwidth in MiByte/s
system.mem_ctrls0.peakBW                     19207.00                       # Theoretical peak bandwidth in MiByte/s
system.mem_ctrls0.busUtil                        0.07                       # Data bus utilization in percentage
system.mem_ctrls0.busUtilRead                    0.06                       # Data bus utilization in percentage for reads
system.mem_ctrls0.busUtilWrite                   0.01                       # Data bus utilization in percentage for writes
system.mem_ctrls0.avgRdQLen                      1.02                       # Average read queue length when enqueuing
system.mem_ctrls0.avgWrQLen                     53.38                       # Average write queue length when enqueuing
system.mem_ctrls0.readRowHits                   14389                       # Number of row buffer hits during reads
system.mem_ctrls0.writeRowHits                   1235                       # Number of row buffer hits during writes
system.mem_ctrls0.readRowHitRate                75.27                       # Row buffer hit rate for reads
system.mem_ctrls0.writeRowHitRate               65.97                       # Row buffer hit rate for writes
system.mem_ctrls0.avgGap                    336359.04                       # Average gap between requests
system.mem_ctrls0.pageHitRate                   74.44                       # Row buffer hit rate, read and write combined
system.mem_ctrls0_0.actEnergy            7965292.608000                       # Energy for activate commands per rank (pJ)
system.mem_ctrls0_0.preEnergy            10589754.403200                       # Energy for precharge commands per rank (pJ)
system.mem_ctrls0_0.readEnergy           37461457.420800                       # Energy for read commands per rank (pJ)
system.mem_ctrls0_0.writeEnergy          3175929.120000                       # Energy for write commands per rank (pJ)
system.mem_ctrls0_0.refreshEnergy        1030720954.636805                       # Energy for refresh commands per rank (pJ)
system.mem_ctrls0_0.actBackEnergy        508432949.438400                       # Energy for active background per rank (pJ)
system.mem_ctrls0_0.preBackEnergy        36145759.910400                       # Energy for precharge background per rank (pJ)
system.mem_ctrls0_0.actPowerDownEnergy   2342803943.424003                       # Energy for active power-down per rank (pJ)
system.mem_ctrls0_0.prePowerDownEnergy   654379343.519997                       # Energy for precharge power-down per rank (pJ)
system.mem_ctrls0_0.selfRefreshEnergy    54347093531.572784                       # Energy for self refresh per rank (pJ)
system.mem_ctrls0_0.totalEnergy          58979311866.787186                       # Total energy per rank (pJ)
system.mem_ctrls0_0.averagePower           589.793119                       # Core power per rank (mW)
system.mem_ctrls0_0.totalIdleTime          6416298517                       # Total Idle time Per DRAM Rank
system.mem_ctrls0_0.memoryStateTime::IDLE     34826000                       # Time in different power states
system.mem_ctrls0_0.memoryStateTime::REF    260400000                       # Time in different power states
system.mem_ctrls0_0.memoryStateTime::SREF  94169095200                       # Time in different power states
system.mem_ctrls0_0.memoryStateTime::PRE_PDN   1363287892                       # Time in different power states
system.mem_ctrls0_0.memoryStateTime::ACT    359183163                       # Time in different power states
system.mem_ctrls0_0.memoryStateTime::ACT_PDN   3813207745                       # Time in different power states
system.mem_ctrls0_1.actEnergy            8592161.760000                       # Energy for activate commands per rank (pJ)
system.mem_ctrls0_1.preEnergy            11423168.904000                       # Energy for precharge commands per rank (pJ)
system.mem_ctrls0_1.readEnergy           42946494.528000                       # Energy for read commands per rank (pJ)
system.mem_ctrls0_1.writeEnergy          3653258.112000                       # Energy for write commands per rank (pJ)
system.mem_ctrls0_1.refreshEnergy        1041803975.654405                       # Energy for refresh commands per rank (pJ)
system.mem_ctrls0_1.actBackEnergy        532793977.127999                       # Energy for active background per rank (pJ)
system.mem_ctrls0_1.preBackEnergy        34236539.904000                       # Energy for precharge background per rank (pJ)
system.mem_ctrls0_1.actPowerDownEnergy   2436334516.223995                       # Energy for active power-down per rank (pJ)
system.mem_ctrls0_1.prePowerDownEnergy   597138249.119999                       # Energy for precharge power-down per rank (pJ)
system.mem_ctrls0_1.selfRefreshEnergy    54300249424.713585                       # Energy for self refresh per rank (pJ)
system.mem_ctrls0_1.totalEnergy          59009505188.625587                       # Total energy per rank (pJ)
system.mem_ctrls0_1.averagePower           590.095052                       # Core power per rank (mW)
system.mem_ctrls0_1.totalIdleTime          6395551732                       # Total Idle time Per DRAM Rank
system.mem_ctrls0_1.memoryStateTime::IDLE     31473000                       # Time in different power states
system.mem_ctrls0_1.memoryStateTime::REF    263200000                       # Time in different power states
system.mem_ctrls0_1.memoryStateTime::SREF  94110614480                       # Time in different power states
system.mem_ctrls0_1.memoryStateTime::PRE_PDN   1244057615                       # Time in different power states
system.mem_ctrls0_1.memoryStateTime::ACT    385296948                       # Time in different power states
system.mem_ctrls0_1.memoryStateTime::ACT_PDN   3965357957                       # Time in different power states
system.mem_ctrls1.pwrStateResidencyTicks::UNDEFINED 100000000000                       # Cumulative time (in ticks) in various power states
system.mem_ctrls1.bytes_read::.cpu.inst        214976                       # Number of bytes read from this memory
system.mem_ctrls1.bytes_read::.cpu.data        424192                       # Number of bytes read from this memory
system.mem_ctrls1.bytes_read::.l2.prefetcher       584512                       # Number of bytes read from this memory
system.mem_ctrls1.bytes_read::total           1223680                       # Number of bytes read from this memory
system.mem_ctrls1.bytes_inst_read::.cpu.inst       214976                       # Number of instructions bytes read from this memory
system.mem_ctrls1.bytes_inst_read::total       214976                       # Number of instructions bytes read from this memory
system.mem_ctrls1.bytes_written::.writebacks       121792                       # Number of bytes written to this memory
system.mem_ctrls1.bytes_written::total         121792                       # Number of bytes written to this memory
system.mem_ctrls1.num_reads::.cpu.inst           3359                       # Number of read requests responded to by this memory
system.mem_ctrls1.num_reads::.cpu.data           6628                       # Number of read requests responded to by this memory
system.mem_ctrls1.num_reads::.l2.prefetcher         9133                       # Number of read requests responded to by this memory
system.mem_ctrls1.num_reads::total              19120                       # Number of read requests responded to by this memory
system.mem_ctrls1.num_writes::.writebacks         1903                       # Number of write requests responded to by this memory
system.mem_ctrls1.num_writes::total              1903                       # Number of write requests responded to by this memory
system.mem_ctrls1.bw_read::.cpu.inst          2149760                       # Total read bandwidth from this memory (bytes/s)
system.mem_ctrls1.bw_read::.cpu.data          4241920                       # Total read bandwidth from this memory (bytes/s)
system.mem_ctrls1.bw_read::.l2.prefetcher      5845120                       # Total read bandwidth from this memory (bytes/s)
system.mem_ctrls1.bw_read::total             12236800                       # Total read bandwidth from this memory (bytes/s)
system.mem_ctrls1.bw_inst_read::.cpu.inst      2149760                       # Instruction read bandwidth from this memory (bytes/s)
system.mem_ctrls1.bw_inst_read::total         2149760                       # Instruction read bandwidth from this memory (bytes/s)
system.mem_ctrls1.bw_write::.writebacks       1217920                       # Write bandwidth from this memory (bytes/s)
system.mem_ctrls1.bw_write::total             1217920                       # Write bandwidth from this memory (bytes/s)
system.mem_ctrls1.bw_total::.writebacks       1217920                       # Total bandwidth to/from this memory (bytes/s)
system.mem_ctrls1.bw_total::.cpu.inst         2149760                       # Total bandwidth to/from this memory (bytes/s)
system.mem_ctrls1.bw_total::.cpu.data         4241920                       # Total bandwidth to/from this memory (bytes/s)
system.mem_ctrls1.bw_total::.l2.prefetcher      5845120                       # Total bandwidth to/from this memory (bytes/s)
system.mem_ctrls1.bw_total::total            13454720                       # Total bandwidth to/from this memory (bytes/s)
system.mem_ctrls1.avgPriority_.writebacks::samples      1903.00                       # Average QoS priority value for accepted requests
system.mem_ctrls1.avgPriority_.cpu.inst::samples      3359.00                       # Average QoS priority value for accepted requests
system.mem_ctrls1.avgPriority_.cpu.data::samples      6621.00                       # Average QoS priority value for accepted requests
system.mem_ctrls1.avgPriority_.l2.prefetcher::samples      9131.00                       # Average QoS priority value for accepted requests
system.mem_ctrls1.priorityMinLatency     0.000000017492                       # per QoS priority minimum request to response latency (s)
system.mem_ctrls1.priorityMaxLatency     0.005562918124                       # per QoS priority maximum request to response latency (s)
system.mem_ctrls1.numReadWriteTurnArounds          105                       # Number of turnarounds from READ to WRITE
system.mem_ctrls1.numWriteReadTurnArounds          105                       # Number of turnarounds from WRITE to READ
system.mem_ctrls1.numStayReadState              41300                       # Number of times bus staying in READ state
system.mem_ctrls1.numStayWriteState              1761                       # Number of times bus staying in WRITE state
system.mem_ctrls1.readReqs                      19120                       # Number of read requests accepted
system.mem_ctrls1.writeReqs                      1903                       # Number of write requests accepted
system.mem_ctrls1.readBursts                    19120                       # Number of DRAM read bursts, including those serviced by the write queue
system.mem_ctrls1.writeBursts                    1903                       # Number of DRAM write bursts, including those merged in the write queue
system.mem_ctrls1.bytesReadDRAM               1223104                       # Total number of bytes read from DRAM
system.mem_ctrls1.bytesReadWrQ                    576                       # Total number of bytes read from write queue
system.mem_ctrls1.bytesWritten                 117888                       # Total number of bytes written to DRAM
system.mem_ctrls1.bytesReadSys                1223680                       # Total read bytes from the system interface side
system.mem_ctrls1.bytesWrittenSys              121792                       # Total written bytes from the system interface side
system.mem_ctrls1.servicedByWrQ                     9                       # Number of DRAM read bursts serviced by the write queue
system.mem_ctrls1.mergedWrBursts                    0                       # Number of DRAM write bursts merged with an existing one
system.mem_ctrls1.neitherReadNorWriteReqs            0                       # Number of requests that are neither read nor write
system.mem_ctrls1.perBankRdBursts::0              576                       # Per bank write bursts
system.mem_ctrls1.perBankRdBursts::1              451                       # Per bank write bursts
system.mem_ctrls1.perBankRdBursts::2              357                       # Per bank write bursts
system.mem_ctrls1.perBankRdBursts::3              494                       # Per bank write bursts
system.mem_ctrls1.perBankRdBursts::4              572                       # Per bank write bursts
system.mem_ctrls1.perBankRdBursts::5              623                       # Per bank write bursts
system.mem_ctrls1.perBankRdBursts::6              619                       # Per bank write bursts
system.mem_ctrls1.perBankRdBursts::7              735                       # Per bank write bursts
system.mem_ctrls1.perBankRdBursts::8              572                       # Per bank write bursts
system.mem_ctrls1.perBankRdBursts::9              515                       # Per bank write bursts
system.mem_ctrls1.perBankRdBursts::10             644                       # Per bank write bursts
system.mem_ctrls1.perBankRdBursts::11             608                       # Per bank write bursts
system.mem_ctrls1.perBankRdBursts::12             544                       # Per bank write bursts
system.mem_ctrls1.perBankRdBursts::13             513                       # Per bank write bursts
system.mem_ctrls1.perBankRdBursts::14             521                       # Per bank write bursts
system.mem_ctrls1.perBankRdBursts::15             555                       # Per bank write bursts
system.mem_ctrls1.perBankRdBursts::16             560                       # Per bank write bursts
system.mem_ctrls1.perBankRdBursts::17             582                       # Per bank write bursts
system.mem_ctrls1.perBankRdBursts::18             686                       # Per bank write bursts
system.mem_ctrls1.perBankRdBursts::19             818                       # Per bank write bursts
system.mem_ctrls1.perBankRdBursts::20             660                       # Per bank write bursts
system.mem_ctrls1.perBankRdBursts::21             874                       # Per bank write bursts
system.mem_ctrls1.perBankRdBursts::22             867                       # Per bank write bursts
system.mem_ctrls1.perBankRdBursts::23            1022                       # Per bank write bursts
system.mem_ctrls1.perBankRdBursts::24             775                       # Per bank write bursts
system.mem_ctrls1.perBankRdBursts::25             689                       # Per bank write bursts
system.mem_ctrls1.perBankRdBursts::26             601                       # Per bank write bursts
system.mem_ctrls1.perBankRdBursts::27             369                       # Per bank write bursts
system.mem_ctrls1.perBankRdBursts::28             405                       # Per bank write bursts
system.mem_ctrls1.perBankRdBursts::29             480                       # Per bank write bursts
system.mem_ctrls1.perBankRdBursts::30             345                       # Per bank write bursts
system.mem_ctrls1.perBankRdBursts::31             479                       # Per bank write bursts
system.mem_ctrls1.perBankWrBursts::0               27                       # Per bank write bursts
system.mem_ctrls1.perBankWrBursts::1               15                       # Per bank write bursts
system.mem_ctrls1.perBankWrBursts::2               13                       # Per bank write bursts
system.mem_ctrls1.perBankWrBursts::3               66                       # Per bank write bursts
system.mem_ctrls1.perBankWrBursts::4               52                       # Per bank write bursts
system.mem_ctrls1.perBankWrBursts::5              111                       # Per bank write bursts
system.mem_ctrls1.perBankWrBursts::6               88                       # Per bank write bursts
system.mem_ctrls1.perBankWrBursts::7              196                       # Per bank write bursts
system.mem_ctrls1.perBankWrBursts::8              143                       # Per bank write bursts
system.mem_ctrls1.perBankWrBursts::9               47                       # Per bank write bursts
system.mem_ctrls1.perBankWrBursts::10              91                       # Per bank write bursts
system.mem_ctrls1.perBankWrBursts::11               0                       # Per bank write bursts
system.mem_ctrls1.perBankWrBursts::12               3                       # Per bank write bursts
system.mem_ctrls1.perBankWrBursts::13               6                       # Per bank write bursts
system.mem_ctrls1.perBankWrBursts::14               1                       # Per bank write bursts
system.mem_ctrls1.perBankWrBursts::15               5                       # Per bank write bursts
system.mem_ctrls1.perBankWrBursts::16              32                       # Per bank write bursts
system.mem_ctrls1.perBankWrBursts::17              16                       # Per bank write bursts
system.mem_ctrls1.perBankWrBursts::18              40                       # Per bank write bursts
system.mem_ctrls1.perBankWrBursts::19              92                       # Per bank write bursts
system.mem_ctrls1.perBankWrBursts::20              64                       # Per bank write bursts
system.mem_ctrls1.perBankWrBursts::21             133                       # Per bank write bursts
system.mem_ctrls1.perBankWrBursts::22             169                       # Per bank write bursts
system.mem_ctrls1.perBankWrBursts::23             245                       # Per bank write bursts
system.mem_ctrls1.perBankWrBursts::24              54                       # Per bank write bursts
system.mem_ctrls1.perBankWrBursts::25              32                       # Per bank write bursts
system.mem_ctrls1.perBankWrBursts::26              35                       # Per bank write bursts
system.mem_ctrls1.perBankWrBursts::27              17                       # Per bank write bursts
system.mem_ctrls1.perBankWrBursts::28              12                       # Per bank write bursts
system.mem_ctrls1.perBankWrBursts::29               9                       # Per bank write bursts
system.mem_ctrls1.perBankWrBursts::30               0                       # Per bank write bursts
system.mem_ctrls1.perBankWrBursts::31              28                       # Per bank write bursts
system.mem_ctrls1.numRdRetry                        0                       # Number of times read queue was full causing retry
system.mem_ctrls1.numWrRetry                        0                       # Number of times write queue was full causing retry
system.mem_ctrls1.totGap                   7061948500                       # Total gap between requests
system.mem_ctrls1.readPktSize::0                    0                       # Read request sizes (log2)
system.mem_ctrls1.readPktSize::1                    0                       # Read request sizes (log2)
system.mem_ctrls1.readPktSize::2                    0                       # Read request sizes (log2)
system.mem_ctrls1.readPktSize::3                    0                       # Read request sizes (log2)
system.mem_ctrls1.readPktSize::4                    0                       # Read request sizes (log2)
system.mem_ctrls1.readPktSize::5                    0                       # Read request sizes (log2)
system.mem_ctrls1.readPktSize::6                19120                       # Read request sizes (log2)
system.mem_ctrls1.writePktSize::0                   0                       # Write request sizes (log2)
system.mem_ctrls1.writePktSize::1                   0                       # Write request sizes (log2)
system.mem_ctrls1.writePktSize::2                   0                       # Write request sizes (log2)
system.mem_ctrls1.writePktSize::3                   0                       # Write request sizes (log2)
system.mem_ctrls1.writePktSize::4                   0                       # Write request sizes (log2)
system.mem_ctrls1.writePktSize::5                   0                       # Write request sizes (log2)
system.mem_ctrls1.writePktSize::6                1903                       # Write request sizes (log2)
system.mem_ctrls1.rdQLenPdf::0                  15525                       # What read queue length does an incoming req see
system.mem_ctrls1.rdQLenPdf::1                   1650                       # What read queue length does an incoming req see
system.mem_ctrls1.rdQLenPdf::2                    789                       # What read queue length does an incoming req see
system.mem_ctrls1.rdQLenPdf::3                    596                       # What read queue length does an incoming req see
system.mem_ctrls1.rdQLenPdf::4                    241                       # What read queue length does an incoming req see
system.mem_ctrls1.rdQLenPdf::5                     88                       # What read queue length does an incoming req see
system.mem_ctrls1.rdQLenPdf::6                     76                       # What read queue length does an incoming req see
system.mem_ctrls1.rdQLenPdf::7                     73                       # What read queue length does an incoming req see
system.mem_ctrls1.rdQLenPdf::8                     72                       # What read queue length does an incoming req see
system.mem_ctrls1.rdQLenPdf::9                      1                       # What read queue length does an incoming req see
system.mem_ctrls1.rdQLenPdf::10                     0                       # What read queue length does an incoming req see
system.mem_ctrls1.rdQLenPdf::11                     0                       # What read queue length does an incoming req see
system.mem_ctrls1.rdQLenPdf::12                     0                       # What read queue length does an incoming req see
system.mem_ctrls1.rdQLenPdf::13                     0                       # What read queue length does an incoming req see
system.mem_ctrls1.rdQLenPdf::14                     0                       # What read queue length does an incoming req see
system.mem_ctrls1.rdQLenPdf::15                     0                       # What read queue length does an incoming req see
system.mem_ctrls1.rdQLenPdf::16                     0                       # What read queue length does an incoming req see
system.mem_ctrls1.rdQLenPdf::17                     0                       # What read queue length does an incoming req see
system.mem_ctrls1.rdQLenPdf::18                     0                       # What read queue length does an incoming req see
system.mem_ctrls1.rdQLenPdf::19                     0                       # What read queue length does an incoming req see
system.mem_ctrls1.rdQLenPdf::20                     0                       # What read queue length does an incoming req see
system.mem_ctrls1.rdQLenPdf::21                     0                       # What read queue length does an incoming req see
system.mem_ctrls1.rdQLenPdf::22                     0                       # What read queue length does an incoming req see
system.mem_ctrls1.rdQLenPdf::23                     0                       # What read queue length does an incoming req see
system.mem_ctrls1.rdQLenPdf::24                     0                       # What read queue length does an incoming req see
system.mem_ctrls1.rdQLenPdf::25                     0                       # What read queue length does an incoming req see
system.mem_ctrls1.rdQLenPdf::26                     0                       # What read queue length does an incoming req see
system.mem_ctrls1.rdQLenPdf::27                     0                       # What read queue length does an incoming req see
system.mem_ctrls1.rdQLenPdf::28                     0                       # What read queue length does an incoming req see
system.mem_ctrls1.rdQLenPdf::29                     0                       # What read queue length does an incoming req see
system.mem_ctrls1.rdQLenPdf::30                     0                       # What read queue length does an incoming req see
system.mem_ctrls1.rdQLenPdf::31                     0                       # What read queue length does an incoming req see
system.mem_ctrls1.rdQLenPdf::32                     0                       # What read queue length does an incoming req see
system.mem_ctrls1.rdQLenPdf::33                     0                       # What read queue length does an incoming req see
system.mem_ctrls1.rdQLenPdf::34                     0                       # What read queue length does an incoming req see
system.mem_ctrls1.rdQLenPdf::35                     0                       # What read queue length does an incoming req see
system.mem_ctrls1.rdQLenPdf::36                     0                       # What read queue length does an incoming req see
system.mem_ctrls1.rdQLenPdf::37                     0                       # What read queue length does an incoming req see
system.mem_ctrls1.rdQLenPdf::38                     0                       # What read queue length does an incoming req see
system.mem_ctrls1.rdQLenPdf::39                     0                       # What read queue length does an incoming req see
system.mem_ctrls1.rdQLenPdf::40                     0                       # What read queue length does an incoming req see
system.mem_ctrls1.rdQLenPdf::41                     0                       # What read queue length does an incoming req see
system.mem_ctrls1.rdQLenPdf::42                     0                       # What read queue length does an incoming req see
system.mem_ctrls1.rdQLenPdf::43                     0                       # What read queue length does an incoming req see
system.mem_ctrls1.rdQLenPdf::44                     0                       # What read queue length does an incoming req see
system.mem_ctrls1.rdQLenPdf::45                     0                       # What read queue length does an incoming req see
system.mem_ctrls1.rdQLenPdf::46                     0                       # What read queue length does an incoming req see
system.mem_ctrls1.rdQLenPdf::47                     0                       # What read queue length does an incoming req see
system.mem_ctrls1.rdQLenPdf::48                     0                       # What read queue length does an incoming req see
system.mem_ctrls1.rdQLenPdf::49                     0                       # What read queue length does an incoming req see
system.mem_ctrls1.rdQLenPdf::50                     0                       # What read queue length does an incoming req see
system.mem_ctrls1.rdQLenPdf::51                     0                       # What read queue length does an incoming req see
system.mem_ctrls1.rdQLenPdf::52                     0                       # What read queue length does an incoming req see
system.mem_ctrls1.rdQLenPdf::53                     0                       # What read queue length does an incoming req see
system.mem_ctrls1.rdQLenPdf::54                     0                       # What read queue length does an incoming req see
system.mem_ctrls1.rdQLenPdf::55                     0                       # What read queue length does an incoming req see
system.mem_ctrls1.rdQLenPdf::56                     0                       # What read queue length does an incoming req see
system.mem_ctrls1.rdQLenPdf::57                     0                       # What read queue length does an incoming req see
system.mem_ctrls1.rdQLenPdf::58                     0                       # What read queue length does an incoming req see
system.mem_ctrls1.rdQLenPdf::59                     0                       # What read queue length does an incoming req see
system.mem_ctrls1.rdQLenPdf::60                     0                       # What read queue length does an incoming req see
system.mem_ctrls1.rdQLenPdf::61                     0                       # What read queue length does an incoming req see
system.mem_ctrls1.rdQLenPdf::62                     0                       # What read queue length does an incoming req see
system.mem_ctrls1.rdQLenPdf::63                     0                       # What read queue length does an incoming req see
system.mem_ctrls1.wrQLenPdf::0                      1                       # What write queue length does an incoming req see
system.mem_ctrls1.wrQLenPdf::1                      1                       # What write queue length does an incoming req see
system.mem_ctrls1.wrQLenPdf::2                      1                       # What write queue length does an incoming req see
system.mem_ctrls1.wrQLenPdf::3                      1                       # What write queue length does an incoming req see
system.mem_ctrls1.wrQLenPdf::4                      1                       # What write queue length does an incoming req see
system.mem_ctrls1.wrQLenPdf::5                      1                       # What write queue length does an incoming req see
system.mem_ctrls1.wrQLenPdf::6                      1                       # What write queue length does an incoming req see
system.mem_ctrls1.wrQLenPdf::7                      1                       # What write queue length does an incoming req see
system.mem_ctrls1.wrQLenPdf::8                      1                       # What write queue length does an incoming req see
system.mem_ctrls1.wrQLenPdf::9                      1                       # What write queue length does an incoming req see
system.mem_ctrls1.wrQLenPdf::10                     1                       # What write queue length does an incoming req see
system.mem_ctrls1.wrQLenPdf::11                     1                       # What write queue length does an incoming req see
system.mem_ctrls1.wrQLenPdf::12                     1                       # What write queue length does an incoming req see
system.mem_ctrls1.wrQLenPdf::13                     1                       # What write queue length does an incoming req see
system.mem_ctrls1.wrQLenPdf::14                     1                       # What write queue length does an incoming req see
system.mem_ctrls1.wrQLenPdf::15                     1                       # What write queue length does an incoming req see
system.mem_ctrls1.wrQLenPdf::16                     1                       # What write queue length does an incoming req see
system.mem_ctrls1.wrQLenPdf::17                     1                       # What write queue length does an incoming req see
system.mem_ctrls1.wrQLenPdf::18                     1                       # What write queue length does an incoming req see
system.mem_ctrls1.wrQLenPdf::19                     1                       # What write queue length does an incoming req see
system.mem_ctrls1.wrQLenPdf::20                     1                       # What write queue length does an incoming req see
system.mem_ctrls1.wrQLenPdf::21                     1                       # What write queue length does an incoming req see
system.mem_ctrls1.wrQLenPdf::22                     1                       # What write queue length does an incoming req see
system.mem_ctrls1.wrQLenPdf::23                     1                       # What write queue length does an incoming req see
[...]
system.l2.avg_blocked_cycles::no_targets          nan                       # average number of cycles each access was blocked
system.l2.unused_prefetches                       218                       # number of HardPF blocks evicted w/o reference
system.l2.writebacks::.writebacks                3775                       # number of writebacks
system.l2.writebacks::total                      3775                       # number of writebacks
system.l2.ReadExReq_mshr_hits::.cpu.data           31                       # number of ReadExReq MSHR hits
system.l2.ReadExReq_mshr_hits::total               31                       # number of ReadExReq MSHR hits
system.l2.ReadSharedReq_mshr_hits::.cpu.data            2                       # number of ReadSharedReq MSHR hits
system.l2.ReadSharedReq_mshr_hits::total            2                       # number of ReadSharedReq MSHR hits
system.l2.demand_mshr_hits::.cpu.data              33                       # number of demand (read+write) MSHR hits
system.l2.demand_mshr_hits::total                  33                       # number of demand (read+write) MSHR hits
system.l2.overall_mshr_hits::.cpu.data             33                       # number of overall MSHR hits
system.l2.overall_mshr_hits::total                 33                       # number of overall MSHR hits
system.l2.HardPFReq_mshr_misses::.l2.prefetcher        20223                       # number of HardPFReq MSHR misses
system.l2.HardPFReq_mshr_misses::total          20223                       # number of HardPFReq MSHR misses
system.l2.UpgradeReq_mshr_misses::.cpu.data           48                       # number of UpgradeReq MSHR misses
system.l2.UpgradeReq_mshr_misses::total            48                       # number of UpgradeReq MSHR misses
system.l2.ReadExReq_mshr_misses::.cpu.data         9866                       # number of ReadExReq MSHR misses
system.l2.ReadExReq_mshr_misses::total           9866                       # number of ReadExReq MSHR misses
system.l2.ReadCleanReq_mshr_misses::.cpu.inst         6715                       # number of ReadCleanReq MSHR misses
system.l2.ReadCleanReq_mshr_misses::total         6715                       # number of ReadCleanReq MSHR misses
system.l2.ReadSharedReq_mshr_misses::.cpu.data         3213                       # number of ReadSharedReq MSHR misses
system.l2.ReadSharedReq_mshr_misses::total         3213                       # number of ReadSharedReq MSHR misses
system.l2.demand_mshr_misses::.cpu.inst          6715                       # number of demand (read+write) MSHR misses
system.l2.demand_mshr_misses::.cpu.data         13079                       # number of demand (read+write) MSHR misses
system.l2.demand_mshr_misses::total             19794                       # number of demand (read+write) MSHR misses
system.l2.overall_mshr_misses::.cpu.inst         6715                       # number of overall MSHR misses
system.l2.overall_mshr_misses::.cpu.data        13079                       # number of overall MSHR misses
system.l2.overall_mshr_misses::.l2.prefetcher        20223                       # number of overall MSHR misses
system.l2.overall_mshr_misses::total            40017                       # number of overall MSHR misses
system.l2.HardPFReq_mshr_miss_latency::.l2.prefetcher   1380962576                       # number of HardPFReq MSHR miss cycles
system.l2.HardPFReq_mshr_miss_latency::total   1380962576                       # number of HardPFReq MSHR miss cycles
system.l2.UpgradeReq_mshr_miss_latency::.cpu.data      1463000                       # number of UpgradeReq MSHR miss cycles
system.l2.UpgradeReq_mshr_miss_latency::total      1463000                       # number of UpgradeReq MSHR miss cycles
system.l2.ReadExReq_mshr_miss_latency::.cpu.data    911935000                       # number of ReadExReq MSHR miss cycles
system.l2.ReadExReq_mshr_miss_latency::total    911935000                       # number of ReadExReq MSHR miss cycles
system.l2.ReadCleanReq_mshr_miss_latency::.cpu.inst    699404501                       # number of ReadCleanReq MSHR miss cycles
system.l2.ReadCleanReq_mshr_miss_latency::total    699404501                       # number of ReadCleanReq MSHR miss cycles
system.l2.ReadSharedReq_mshr_miss_latency::.cpu.data    371294002                       # number of ReadSharedReq MSHR miss cycles
system.l2.ReadSharedReq_mshr_miss_latency::total    371294002                       # number of ReadSharedReq MSHR miss cycles
system.l2.demand_mshr_miss_latency::.cpu.inst    699404501                       # number of demand (read+write) MSHR miss cycles
system.l2.demand_mshr_miss_latency::.cpu.data   1283229002                       # number of demand (read+write) MSHR miss cycles
system.l2.demand_mshr_miss_latency::total   1982633503                       # number of demand (read+write) MSHR miss cycles
system.l2.overall_mshr_miss_latency::.cpu.inst    699404501                       # number of overall MSHR miss cycles
system.l2.overall_mshr_miss_latency::.cpu.data   1283229002                       # number of overall MSHR miss cycles
system.l2.overall_mshr_miss_latency::.l2.prefetcher   1380962576                       # number of overall MSHR miss cycles
system.l2.overall_mshr_miss_latency::total   3363596079                       # number of overall MSHR miss cycles
system.l2.HardPFReq_mshr_miss_rate::.l2.prefetcher          inf                       # mshr miss rate for HardPFReq accesses
system.l2.HardPFReq_mshr_miss_rate::total          inf                       # mshr miss rate for HardPFReq accesses
system.l2.UpgradeReq_mshr_miss_rate::.cpu.data            1                       # mshr miss rate for UpgradeReq accesses
system.l2.UpgradeReq_mshr_miss_rate::total            1                       # mshr miss rate for UpgradeReq accesses
system.l2.ReadExReq_mshr_miss_rate::.cpu.data     0.364665                       # mshr miss rate for ReadExReq accesses
system.l2.ReadExReq_mshr_miss_rate::total     0.364665                       # mshr miss rate for ReadExReq accesses
system.l2.ReadCleanReq_mshr_miss_rate::.cpu.inst     0.157437                       # mshr miss rate for ReadCleanReq accesses
system.l2.ReadCleanReq_mshr_miss_rate::total     0.157437                       # mshr miss rate for ReadCleanReq accesses
system.l2.ReadSharedReq_mshr_miss_rate::.cpu.data     0.303342                       # mshr miss rate for ReadSharedReq accesses
system.l2.ReadSharedReq_mshr_miss_rate::total     0.303342                       # mshr miss rate for ReadSharedReq accesses
system.l2.demand_mshr_miss_rate::.cpu.inst     0.157437                       # mshr miss rate for demand accesses
system.l2.demand_mshr_miss_rate::.cpu.data     0.347411                       # mshr miss rate for demand accesses
system.l2.demand_mshr_miss_rate::total       0.246504                       # mshr miss rate for demand accesses
system.l2.overall_mshr_miss_rate::.cpu.inst     0.157437                       # mshr miss rate for overall accesses
system.l2.overall_mshr_miss_rate::.cpu.data     0.347411                       # mshr miss rate for overall accesses
system.l2.overall_mshr_miss_rate::.l2.prefetcher          inf                       # mshr miss rate for overall accesses
system.l2.overall_mshr_miss_rate::total      0.498350                       # mshr miss rate for overall accesses
system.l2.HardPFReq_avg_mshr_miss_latency::.l2.prefetcher 68286.731741                       # average HardPFReq mshr miss latency
system.l2.HardPFReq_avg_mshr_miss_latency::total 68286.731741                       # average HardPFReq mshr miss latency
system.l2.UpgradeReq_avg_mshr_miss_latency::.cpu.data 30479.166667                       # average UpgradeReq mshr miss latency
system.l2.UpgradeReq_avg_mshr_miss_latency::total 30479.166667                       # average UpgradeReq mshr miss latency
system.l2.ReadExReq_avg_mshr_miss_latency::.cpu.data 92432.090006                       # average ReadExReq mshr miss latency
system.l2.ReadExReq_avg_mshr_miss_latency::total 92432.090006                       # average ReadExReq mshr miss latency
system.l2.ReadCleanReq_avg_mshr_miss_latency::.cpu.inst 104155.547431                       # average ReadCleanReq mshr miss latency
system.l2.ReadCleanReq_avg_mshr_miss_latency::total 104155.547431                       # average ReadCleanReq mshr miss latency
system.l2.ReadSharedReq_avg_mshr_miss_latency::.cpu.data 115559.913477                       # average ReadSharedReq mshr miss latency
system.l2.ReadSharedReq_avg_mshr_miss_latency::total 115559.913477                       # average ReadSharedReq mshr miss latency
system.l2.demand_avg_mshr_miss_latency::.cpu.inst 104155.547431                       # average overall mshr miss latency
system.l2.demand_avg_mshr_miss_latency::.cpu.data 98113.693860                       # average overall mshr miss latency
system.l2.demand_avg_mshr_miss_latency::total 100163.357735                       # average overall mshr miss latency
system.l2.overall_avg_mshr_miss_latency::.cpu.inst 104155.547431                       # average overall mshr miss latency
system.l2.overall_avg_mshr_miss_latency::.cpu.data 98113.693860                       # average overall mshr miss latency
system.l2.overall_avg_mshr_miss_latency::.l2.prefetcher 68286.731741                       # average overall mshr miss latency
system.l2.overall_avg_mshr_miss_latency::total 84054.178949                       # average overall mshr miss latency
system.l2.replacements                           6191                       # number of replacements
system.membus.snoop_filter.tot_requests         44485                       # Total number of requests made to the snoop filter.
system.membus.snoop_filter.hit_single_requests         6332                       # Number of requests hitting in the snoop filter with a single holder of the requested data.
system.membus.snoop_filter.hit_multi_requests            0                       # Number of requests hitting in the snoop filter with multiple (>1) holders of the requested data.
system.membus.snoop_filter.tot_snoops               0                       # Total number of snoops made to the snoop filter.
system.membus.snoop_filter.hit_single_snoops            0                       # Number of snoops hitting in the snoop filter with a single holder of the requested data.
system.membus.snoop_filter.hit_multi_snoops            0                       # Number of snoops hitting in the snoop filter with multiple (>1) holders of the requested data.
system.membus.pwrStateResidencyTicks::UNDEFINED 100000000000                       # Cumulative time (in ticks) in various power states
system.membus.trans_dist::ReadResp              28380                       # Transaction distribution
system.membus.trans_dist::WritebackDirty         3775                       # Transaction distribution
system.membus.trans_dist::CleanEvict             2416                       # Transaction distribution
system.membus.trans_dist::UpgradeReq               50                       # Transaction distribution
system.membus.trans_dist::ReadExReq              9864                       # Transaction distribution
system.membus.trans_dist::ReadExResp             9864                       # Transaction distribution
system.membus.trans_dist::ReadCleanReq          28380                       # Transaction distribution
system.membus.pkt_count_system.l2.mem_side::system.mem_ctrls0.port        41353                       # Packet count per connected master and slave (bytes)
system.membus.pkt_count_system.l2.mem_side::system.mem_ctrls1.port        41376                       # Packet count per connected master and slave (bytes)
system.membus.pkt_count_system.l2.mem_side::total        82729                       # Packet count per connected master and slave (bytes)
system.membus.pkt_count::total                  82729                       # Packet count per connected master and slave (bytes)
system.membus.pkt_size_system.l2.mem_side::system.mem_ctrls0.port      1343744                       # Cumulative packet size per connected master and slave (bytes)
system.membus.pkt_size_system.l2.mem_side::system.mem_ctrls1.port      1345472                       # Cumulative packet size per connected master and slave (bytes)
system.membus.pkt_size_system.l2.mem_side::total      2689216                       # Cumulative packet size per connected master and slave (bytes)
system.membus.pkt_size::total                 2689216                       # Cumulative packet size per connected master and slave (bytes)
system.membus.snoops                                0                       # Total snoops (count)
system.membus.snoopTraffic                          0                       # Total snoop traffic (bytes)
system.membus.snoop_fanout::samples             38294                       # Request fanout histogram
system.membus.snoop_fanout::mean                    0                       # Request fanout histogram
system.membus.snoop_fanout::stdev                   0                       # Request fanout histogram
system.membus.snoop_fanout::underflows              0      0.00%      0.00% # Request fanout histogram
system.membus.snoop_fanout::0                   38294    100.00%    100.00% # Request fanout histogram
system.membus.snoop_fanout::1                       0      0.00%    100.00% # Request fanout histogram
system.membus.snoop_fanout::overflows               0      0.00%    100.00% # Request fanout histogram
system.membus.snoop_fanout::min_value               0                       # Request fanout histogram
system.membus.snoop_fanout::max_value               0                       # Request fanout histogram
system.membus.snoop_fanout::total               38294                       # Request fanout histogram
system.membus.reqLayer2.occupancy            39071774                       # Layer occupancy (ticks)
system.membus.reqLayer2.utilization               0.0                       # Layer utilization (%)
system.membus.reqLayer3.occupancy            39162200                       # Layer occupancy (ticks)
system.membus.reqLayer3.utilization               0.0                       # Layer utilization (%)
system.membus.respLayer1.occupancy          205535221                       # Layer occupancy (ticks)
system.membus.respLayer1.utilization              0.2                       # Layer utilization (%)
system.tol2bus.snoop_filter.tot_requests       159220                       # Total number of requests made to the snoop filter.
system.tol2bus.snoop_filter.hit_single_requests        78806                       # Number of requests hitting in the snoop filter with a single holder of the requested data.
system.tol2bus.snoop_filter.hit_multi_requests          285                       # Number of requests hitting in the snoop filter with multiple (>1) holders of the requested data.
system.tol2bus.snoop_filter.tot_snoops           1775                       # Total number of snoops made to the snoop filter.
system.tol2bus.snoop_filter.hit_single_snoops         1775                       # Number of snoops hitting in the snoop filter with a single holder of the requested data.
system.tol2bus.snoop_filter.hit_multi_snoops            0                       # Number of snoops hitting in the snoop filter with multiple (>1) holders of the requested data.
system.tol2bus.pwrStateResidencyTicks::UNDEFINED 100000000000                       # Cumulative time (in ticks) in various power states
system.tol2bus.trans_dist::ReadResp             53322                       # Transaction distribution
system.tol2bus.trans_dist::WritebackDirty        37344                       # Transaction distribution
system.tol2bus.trans_dist::WritebackClean        45226                       # Transaction distribution
system.tol2bus.trans_dist::CleanEvict            2416                       # Transaction distribution
system.tol2bus.trans_dist::HardPFReq            23469                       # Transaction distribution
system.tol2bus.trans_dist::UpgradeReq              48                       # Transaction distribution
system.tol2bus.trans_dist::UpgradeResp             48                       # Transaction distribution
system.tol2bus.trans_dist::ReadExReq            27055                       # Transaction distribution
system.tol2bus.trans_dist::ReadExResp           27055                       # Transaction distribution
system.tol2bus.trans_dist::ReadCleanReq         42730                       # Transaction distribution
system.tol2bus.trans_dist::ReadSharedReq        10592                       # Transaction distribution
system.tol2bus.pkt_count_system.cpu.icache.mem_side::system.l2.cpu_side       127554                       # Packet count per connected master and slave (bytes)
system.tol2bus.pkt_count_system.cpu.dcache.mem_side::system.l2.cpu_side       112013                       # Packet count per connected master and slave (bytes)
system.tol2bus.pkt_count::total                239567                       # Packet count per connected master and slave (bytes)
system.tol2bus.pkt_size_system.cpu.icache.mem_side::system.l2.cpu_side      5428736                       # Cumulative packet size per connected master and slave (bytes)
system.tol2bus.pkt_size_system.cpu.dcache.mem_side::system.l2.cpu_side      4753280                       # Cumulative packet size per connected master and slave (bytes)
system.tol2bus.pkt_size::total               10182016                       # Cumulative packet size per connected master and slave (bytes)
system.tol2bus.snoops                           29738                       # Total snoops (count)
system.tol2bus.snoopTraffic                    246592                       # Total snoop traffic (bytes)
system.tol2bus.snoop_fanout::samples           110085                       # Request fanout histogram
system.tol2bus.snoop_fanout::mean            0.018795                       # Request fanout histogram
system.tol2bus.snoop_fanout::stdev           0.135799                       # Request fanout histogram
system.tol2bus.snoop_fanout::underflows             0      0.00%      0.00% # Request fanout histogram
system.tol2bus.snoop_fanout::0                 108016     98.12%     98.12% # Request fanout histogram
system.tol2bus.snoop_fanout::1                   2069      1.88%    100.00% # Request fanout histogram
system.tol2bus.snoop_fanout::2                      0      0.00%    100.00% # Request fanout histogram
system.tol2bus.snoop_fanout::3                      0      0.00%    100.00% # Request fanout histogram
system.tol2bus.snoop_fanout::4                      0      0.00%    100.00% # Request fanout histogram
system.tol2bus.snoop_fanout::overflows              0      0.00%    100.00% # Request fanout histogram
system.tol2bus.snoop_fanout::min_value              0                       # Request fanout histogram
system.tol2bus.snoop_fanout::max_value              1                       # Request fanout histogram
system.tol2bus.snoop_fanout::total             110085                       # Request fanout histogram
system.tol2bus.reqLayer0.occupancy          158405000                       # Layer occupancy (ticks)
system.tol2bus.reqLayer0.utilization              0.2                       # Layer utilization (%)
system.tol2bus.respLayer0.occupancy          64105479                       # Layer occupancy (ticks)
system.tol2bus.respLayer0.utilization             0.1                       # Layer utilization (%)
system.tol2bus.respLayer1.occupancy          56512464                       # Layer occupancy (ticks)
system.tol2bus.respLayer1.utilization             0.1                       # Layer utilization (%)

---------- End Simulation Statistics   ----------
