gem5 Simulator System.  http://gem5.org
gem5 is copyrighted software; use the --copyright option for details.

gem5 compiled Aug 10 2020 17:26:34
gem5 started Aug 10 2020 17:28:21
gem5 executing on dante, pid 22256
command line: /home/dante/gem5-changes/build/X86/gem5.opt /home/dante/gem5-changes/configs/example/se.py -c tests/test-progs/hello/bin/x86/linux/hello --cpu-type=O3_X86_skylake_1 --caches --l2cache --mem-type=DDR4_2400_16x4 --mem-channels=2 --enable-microop-cache --enable-micro-fusion

Global frequency set at 1000000000000 ticks per second
**** REAL SIMULATION ****
Instruction Commited: (0)1 PCState: (0x400190=>0x400193).(0=>1)   XOR_R_R : xor   rbp, rbp, rbp
Instruction Commited: (0)2 PCState: (0x400193=>0x400196).(0=>1)   MOV_R_R : mov   r9, r9, rdx
Instruction Commited: (0)3 PCState: (0x400196=>0x400197).(0=>1)   POP_R : ldis   t1, SS:[rsp]
Instruction Commited: (0)4 PCState: (0x400196=>0x400197).(1=>2)   POP_R : addi   rsp, rsp, 0x8
Instruction Commited: (0)5 PCState: (0x400196=>0x400197).(2=>3)   POP_R : mov   rsi, rsi, t1
Instruction Commited: (0)6 PCState: (0x400197=>0x40019a).(0=>1)   MOV_R_R : mov   rdx, rdx, rsp
Instruction Commited: (0)7 PCState: (0x40019a=>0x40019e).(0=>1)   AND_R_I : limm   t1, 0xfffffffffffffff0
Instruction Commited: (0)8 PCState: (0x40019a=>0x40019e).(1=>2)   AND_R_I : and   rsp, rsp, t1
Instruction Commited: (0)9 PCState: (0x40019e=>0x40019f).(0=>1)   PUSH_R : stis   rax, SS:[rsp + 0xfffffffffffffff8]
Instruction Commited: (0)10 PCState: (0x40019e=>0x40019f).(1=>2)   PUSH_R : subi   rsp, rsp, 0x8
Instruction Commited: (0)11 PCState: (0x40019f=>0x4001a0).(0=>1)   PUSH_R : stis   rsp, SS:[rsp + 0xfffffffffffffff8]
Instruction Commited: (0)12 PCState: (0x40019f=>0x4001a0).(1=>2)   PUSH_R : subi   rsp, rsp, 0x8
Instruction Commited: (0)13 PCState: (0x4001a0=>0x4001a7).(0=>1)   MOV_R_I : limm   r8, 0x40a060
Instruction Commited: (0)14 PCState: (0x4001a7=>0x4001ae).(0=>1)   MOV_R_I : limm   rcx, 0x409ff0
Instruction Commited: (0)15 PCState: (0x4001ae=>0x4001b5).(0=>1)   MOV_R_I : limm   rdi, 0x400274
Instruction Commited: (0)16 PCState: (0x4001b5=>0x4001ba).(0=>1)   CALL_NEAR_I : limm   t1, 0x9846
Instruction Commited: (0)17 PCState: (0x4001b5=>0x4001ba).(1=>2)   CALL_NEAR_I : rdip   t7, %ctrl153, 
Instruction Commited: (0)18 PCState: (0x4001b5=>0x4001ba).(2=>3)   CALL_NEAR_I : stis   t7, SS:[rsp + 0xfffffffffffffff8]
Instruction Commited: (0)19 PCState: (0x4001b5=>0x4001ba).(3=>4)   CALL_NEAR_I : subi   rsp, rsp, 0x8
Instruction Commited: (0)20 PCState: (0x4001b5=>0x409a00).(4=>5)   CALL_NEAR_I : wrip   , t7, t1
Instruction Commited: (0)22 PCState: (0x409a00=>0x409a02).(0=>1)   PUSH_R : stis   r15, SS:[rsp + 0xfffffffffffffff8]
Instruction Commited: (0)23 PCState: (0x409a00=>0x409a02).(1=>2)   PUSH_R : subi   rsp, rsp, 0x8
Instruction Commited: (0)24 PCState: (0x409a02=>0x409a05).(0=>1)   MOVSXD_R_R : sexti   rax, rsi, 0x1f
Instruction Commited: (0)25 PCState: (0x409a05=>0x409a08).(0=>1)   MOV_R_R : mov   r15, r15, r9
Instruction Commited: (0)26 PCState: (0x409a08=>0x409a0a).(0=>1)   PUSH_R : stis   r14, SS:[rsp + 0xfffffffffffffff8]
Instruction Commited: (0)27 PCState: (0x409a08=>0x409a0a).(1=>2)   PUSH_R : subi   rsp, rsp, 0x8
Instruction Commited: (0)28 PCState: (0x409a0a=>0x409a0d).(0=>1)   MOV_R_R : mov   r14, r14, rdx
Instruction Commited: (0)29 PCState: (0x409a0d=>0x409a0f).(0=>1)   PUSH_R : stis   r13, SS:[rsp + 0xfffffffffffffff8]
Instruction Commited: (0)30 PCState: (0x409a0d=>0x409a0f).(1=>2)   PUSH_R : subi   rsp, rsp, 0x8
Instruction Commited: (0)31 PCState: (0x409a0f=>0x409a12).(0=>1)   MOV_R_R : mov   r13d, r13d, esi
Instruction Commited: (0)32 PCState: (0x409a12=>0x409a14).(0=>1)   PUSH_R : stis   r12, SS:[rsp + 0xfffffffffffffff8]
Instruction Commited: (0)33 PCState: (0x409a12=>0x409a14).(1=>2)   PUSH_R : subi   rsp, rsp, 0x8
Instruction Commited: (0)34 PCState: (0x409a14=>0x409a15).(0=>1)   PUSH_R : stis   rbp, SS:[rsp + 0xfffffffffffffff8]
Instruction Commited: (0)35 PCState: (0x409a14=>0x409a15).(1=>2)   PUSH_R : subi   rsp, rsp, 0x8
Instruction Commited: (0)36 PCState: (0x409a15=>0x409a16).(0=>1)   PUSH_R : stis   rbx, SS:[rsp + 0xfffffffffffffff8]
Instruction Commited: (0)37 PCState: (0x409a15=>0x409a16).(1=>2)   PUSH_R : subi   rsp, rsp, 0x8
Instruction Commited: (0)38 PCState: (0x409a16=>0x409a1d).(0=>1)   SUB_R_I : limm   t1, 0x1f8
Instruction Commited: (0)39 PCState: (0x409a16=>0x409a1d).(1=>2)   SUB_R_I : sub   rsp, rsp, t1
Instruction Commited: (0)40 PCState: (0x409a1d=>0x409a22).(0=>1)   MOV_M_R : st   rdi, DS:[rsp + 0x18]
Instruction Commited: (0)41 PCState: (0x409a22=>0x409a27).(0=>1)   LEA_R_M : lea   rdi, DS:[8*rax + rdx + 0x8]
Instruction Commited: (0)42 PCState: (0x409a27=>0x409a2c).(0=>1)   MOV_R_I : limm   eax, 0
Instruction Commited: (0)43 PCState: (0x409a2c=>0x409a2e).(0=>1)   XOR_R_R : xor   edx, edx, edx
Instruction Commited: (0)44 PCState: (0x409a2e=>0x409a31).(0=>1)   TEST_R_R : and   t0, rax, rax
Instruction Commited: (0)45 PCState: (0x409a31=>0x409a36).(0=>1)   MOV_M_R : st   rcx, DS:[rsp + 0x10]
Instruction Commited: (0)46 PCState: (0x409a36=>0x409a3b).(0=>1)   MOV_M_R : st   r8, DS:[rsp + 0x8]
Instruction Commited: (0)47 PCState: (0x409a3b=>0x409a3d).(0=>1)   JZ_I : rdip   t1, %ctrl153, 
Instruction Commited: (0)48 PCState: (0x409a3b=>0x409a3d).(1=>2)   JZ_I : limm   t2, 0x12
Instruction Commited: (0)49 PCState: (0x409a3b=>0x409a4f).(2=>3)   JZ_I : wrip   , t1, t2
Instruction Commited: (0)50 PCState: (0x409a4f=>0x409a57).(0=>1)   MOV_R_M : ld   rax, DS:[rsp + 0x230]
Instruction Commited: (0)51 PCState: (0x409a57=>0x409a5d).(0=>1)   MOV_P_R : rdip   t7d, %ctrl153, 
Instruction Commited: (0)52 PCState: (0x409a57=>0x409a5d).(1=>2)   MOV_P_R : st   edx, DS:[t7 + 0x176d53]
Instruction Commited: (0)53 PCState: (0x409a5d=>0x409a64).(0=>1)   MOV_P_R : rdip   t7, %ctrl153, 
Instruction Commited: (0)54 PCState: (0x409a5d=>0x409a64).(1=>2)   MOV_P_R : st   rdi, DS:[t7 + 0x189394]
Instruction Commited: (0)55 PCState: (0x409a64=>0x409a6b).(0=>1)   MOV_P_R : rdip   t7, %ctrl153, 
Instruction Commited: (0)56 PCState: (0x409a64=>0x409a6b).(1=>2)   MOV_P_R : st   rax, DS:[t7 + 0x175f8d]
Instruction Commited: (0)57 PCState: (0x409a6b=>0x409a6e).(0=>1)   NOP   
Instruction Commited: (0)58 PCState: (0x409a6e=>0x409a70).(0=>1)   NOP   
Instruction Commited: (0)59 PCState: (0x409a70=>0x409a73).(0=>1)   MOV_R_M : ld   rax, DS:[rdi]
Instruction Commited: (0)60 PCState: (0x409a73=>0x409a77).(0=>1)   ADD_R_I : limm   t1, 0x8
Instruction Commited: (0)61 PCState: (0x409a73=>0x409a77).(1=>2)   ADD_R_I : add   rdi, rdi, t1
Instruction Commited: (0)62 PCState: (0x409a77=>0x409a7a).(0=>1)   TEST_R_R : and   t0, rax, rax
Instruction Commited: (0)63 PCState: (0x409a7a=>0x409a7c).(0=>1)   JNZ_I : rdip   t1, %ctrl153, 
Instruction Commited: (0)64 PCState: (0x409a7a=>0x409a7c).(1=>2)   JNZ_I : limm   t2, 0xfffffffffffffff4
Instruction Commited: (0)65 PCState: (0x409a7a=>0x409a7c).(2=>3)   JNZ_I : wrip   , t1, t2
Instruction Commited: (0)66 PCState: (0x409a7c=>0x409a81).(0=>1)   CALL_NEAR_I : limm   t1, 0xc07f
Instruction Commited: (0)67 PCState: (0x409a7c=>0x409a81).(1=>2)   CALL_NEAR_I : rdip   t7, %ctrl153, 
Instruction Commited: (0)68 PCState: (0x409a7c=>0x409a81).(2=>3)   CALL_NEAR_I : stis   t7, SS:[rsp + 0xfffffffffffffff8]
Instruction Commited: (0)69 PCState: (0x409a7c=>0x409a81).(3=>4)   CALL_NEAR_I : subi   rsp, rsp, 0x8
Instruction Commited: (0)70 PCState: (0x409a7c=>0x415b00).(4=>5)   CALL_NEAR_I : wrip   , t7, t1
Instruction Commited: (0)94 PCState: (0x415b00=>0x415b03).(0=>1)   MOV_R_M : ld   rax, DS:[rdi]
Instruction Commited: (0)95 PCState: (0x415b03=>0x415b05).(0=>1)   XOR_R_R : xor   edx, edx, edx
Instruction Commited: (0)96 PCState: (0x415b05=>0x415b07).(0=>1)   XOR_R_R : xor   ecx, ecx, ecx
Instruction Commited: (0)97 PCState: (0x415b07=>0x415b09).(0=>1)   XOR_R_R : xor   esi, esi, esi
Instruction Commited: (0)98 PCState: (0x415b09=>0x415b0c).(0=>1)   TEST_R_R : and   t0, rax, rax
Instruction Commited: (0)99 PCState: (0x415b0c=>0x415b0e).(0=>1)   JZ_I : rdip   t1, %ctrl153, 
Instruction Commited: (0)100 PCState: (0x415b0c=>0x415b0e).(1=>2)   JZ_I : limm   t2, 0x47
Instruction Commited: (0)101 PCState: (0x415b0c=>0x415b0e).(2=>3)   JZ_I : wrip   , t1, t2
Instruction Commited: (0)102 PCState: (0x415b0e=>0x415b10).(0=>1)   NOP   
Instruction Commited: (0)103 PCState: (0x415b10=>0x415b14).(0=>1)   SUB_R_I : limm   t1, 0x3
Instruction Commited: (0)104 PCState: (0x415b10=>0x415b14).(1=>2)   SUB_R_I : sub   rax, rax, t1
Instruction Commited: (0)105 PCState: (0x415b14=>0x415b18).(0=>1)   CMP_R_I : limm   t1, 0x14
Instruction Commited: (0)106 PCState: (0x415b14=>0x415b18).(1=>2)   CMP_R_I : sub   t0, rax, t1
Instruction Commited: (0)107 PCState: (0x415b18=>0x415b1a).(0=>1)   JNBE_I : rdip   t1, %ctrl153, 
Instruction Commited: (0)108 PCState: (0x415b18=>0x415b1a).(1=>2)   JNBE_I : limm   t2, 0x26
Instruction Commited: (0)109 PCState: (0x415b18=>0x415b40).(2=>3)   JNBE_I : wrip   , t1, t2
Instruction Commited: (0)121 PCState: (0x415b40=>0x415b44).(0=>1)   ADD_R_I : limm   t1, 0x10
Instruction Commited: (0)122 PCState: (0x415b40=>0x415b44).(1=>2)   ADD_R_I : add   rdi, rdi, t1
Instruction Commited: (0)123 PCState: (0x415b44=>0x415b47).(0=>1)   MOV_R_M : ld   rax, DS:[rdi]
Instruction Commited: (0)124 PCState: (0x415b47=>0x415b4a).(0=>1)   TEST_R_R : and   t0, rax, rax
Instruction Commited: (0)125 PCState: (0x415b4a=>0x415b4c).(0=>1)   JNZ_I : rdip   t1, %ctrl153, 
Instruction Commited: (0)126 PCState: (0x415b4a=>0x415b4c).(1=>2)   JNZ_I : limm   t2, 0xffffffffffffffc4
Instruction Commited: (0)127 PCState: (0x415b4a=>0x415b10).(2=>3)   JNZ_I : wrip   , t1, t2
Instruction Commited: (0)193 PCState: (0x415b10=>0x415b14).(0=>1)   SUB_R_I : limm   t1, 0x3
Instruction Commited: (0)194 PCState: (0x415b10=>0x415b14).(1=>2)   SUB_R_I : sub   rax, rax, t1
Instruction Commited: (0)195 PCState: (0x415b14=>0x415b18).(0=>1)   CMP_R_I : limm   t1, 0x14
Instruction Commited: (0)196 PCState: (0x415b14=>0x415b18).(1=>2)   CMP_R_I : sub   t0, rax, t1
Instruction Commited: (0)197 PCState: (0x415b18=>0x415b1a).(0=>1)   JNBE_I : rdip   t1, %ctrl153, 
Instruction Commited: (0)198 PCState: (0x415b18=>0x415b1a).(1=>2)   JNBE_I : limm   t2, 0x26
Instruction Commited: (0)199 PCState: (0x415b18=>0x415b1a).(2=>3)   JNBE_I : wrip   , t1, t2
Instruction Commited: (0)272 PCState: (0x415b1a=>0x415b21).(0=>1)   JMP_M : ld   t1, DS:[8*rax + 0x45eb80]
Instruction Commited: (0)273 PCState: (0x415b1a=>0x415b6f).(1=>2)   JMP_M : wripi   , t1, 0
Instruction Commited: (0)509 PCState: (0x415b6f=>0x415b73).(0=>1)   MOV_R_M : ld   rax, DS:[rdi + 0x8]
Instruction Commited: (0)510 PCState: (0x415b73=>0x415b77).(0=>1)   ADD_R_I : limm   t1, 0x10
Instruction Commited: (0)511 PCState: (0x415b73=>0x415b77).(1=>2)   ADD_R_I : add   rdi, rdi, t1
Instruction Commited: (0)512 PCState: (0x415b77=>0x415b7e).(0=>1)   MOV_P_R : rdip   t7, %ctrl153, 
Instruction Commited: (0)513 PCState: (0x415b77=>0x415b7e).(1=>2)   MOV_P_R : st   rax, DS:[t7 + 0x17d2f2]
Instruction Commited: (0)514 PCState: (0x415b7e=>0x415b81).(0=>1)   MOV_R_M : ld   rax, DS:[rdi]
Instruction Commited: (0)515 PCState: (0x415b81=>0x415b84).(0=>1)   TEST_R_R : and   t0, rax, rax
Instruction Commited: (0)516 PCState: (0x415b84=>0x415b86).(0=>1)   JNZ_I : rdip   t1, %ctrl153, 
Instruction Commited: (0)517 PCState: (0x415b84=>0x415b86).(1=>2)   JNZ_I : limm   t2, 0xffffffffffffff8a
Instruction Commited: (0)518 PCState: (0x415b84=>0x415b10).(2=>3)   JNZ_I : wrip   , t1, t2
Instruction Commited: (0)604 PCState: (0x415b10=>0x415b14).(0=>1)   SUB_R_I : limm   t1, 0x3
Instruction Commited: (0)605 PCState: (0x415b10=>0x415b14).(1=>2)   SUB_R_I : sub   rax, rax, t1
Instruction Commited: (0)606 PCState: (0x415b14=>0x415b18).(0=>1)   CMP_R_I : limm   t1, 0x14
Instruction Commited: (0)607 PCState: (0x415b14=>0x415b18).(1=>2)   CMP_R_I : sub   t0, rax, t1
Instruction Commited: (0)608 PCState: (0x415b18=>0x415b1a).(0=>1)   JNBE_I : rdip   t1, %ctrl153, 
Instruction Commited: (0)609 PCState: (0x415b18=>0x415b1a).(1=>2)   JNBE_I : limm   t2, 0x26
Instruction Commited: (0)610 PCState: (0x415b18=>0x415b1a).(2=>3)   JNBE_I : wrip   , t1, t2
Instruction Commited: (0)611 PCState: (0x415b1a=>0x415b21).(0=>1)   JMP_M : ld   t1, DS:[8*rax + 0x45eb80]
Instruction Commited: (0)612 PCState: (0x415b1a=>0x415bee).(1=>2)   JMP_M : wripi   , t1, 0
Instruction Commited: (0)701 PCState: (0x415bee=>0x415bf2).(0=>1)   MOV_R_M : ld   rax, DS:[rdi + 0x8]
Instruction Commited: (0)702 PCState: (0x415bf2=>0x415bf6).(0=>1)   ADD_R_I : limm   t1, 0x10
Instruction Commited: (0)703 PCState: (0x415bf2=>0x415bf6).(1=>2)   ADD_R_I : add   rdi, rdi, t1
Instruction Commited: (0)704 PCState: (0x415bf6=>0x415bfd).(0=>1)   MOV_P_R : rdip   t7, %ctrl153, 
Instruction Commited: (0)705 PCState: (0x415bf6=>0x415bfd).(1=>2)   MOV_P_R : st   rax, DS:[t7 + 0x17d943]
Instruction Commited: (0)706 PCState: (0x415bfd=>0x415c00).(0=>1)   MOV_R_M : ld   rax, DS:[rdi]
Instruction Commited: (0)707 PCState: (0x415c00=>0x415c03).(0=>1)   TEST_R_R : and   t0, rax, rax
Instruction Commited: (0)708 PCState: (0x415c03=>0x415c09).(0=>1)   JNZ_I : rdip   t1, %ctrl153, 
Instruction Commited: (0)709 PCState: (0x415c03=>0x415c09).(1=>2)   JNZ_I : limm   t2, 0xffffffffffffff07
Instruction Commited: (0)710 PCState: (0x415c03=>0x415b10).(2=>3)   JNZ_I : wrip   , t1, t2
Instruction Commited: (0)733 PCState: (0x415b10=>0x415b14).(0=>1)   SUB_R_I : limm   t1, 0x3
Instruction Commited: (0)734 PCState: (0x415b10=>0x415b14).(1=>2)   SUB_R_I : sub   rax, rax, t1
Instruction Commited: (0)735 PCState: (0x415b14=>0x415b18).(0=>1)   CMP_R_I : limm   t1, 0x14
Instruction Commited: (0)736 PCState: (0x415b14=>0x415b18).(1=>2)   CMP_R_I : sub   t0, rax, t1
Instruction Commited: (0)737 PCState: (0x415b18=>0x415b1a).(0=>1)   JNBE_I : rdip   t1, %ctrl153, 
Instruction Commited: (0)738 PCState: (0x415b18=>0x415b1a).(1=>2)   JNBE_I : limm   t2, 0x26
Instruction Commited: (0)739 PCState: (0x415b18=>0x415b1a).(2=>3)   JNBE_I : wrip   , t1, t2
Instruction Commited: (0)740 PCState: (0x415b1a=>0x415b21).(0=>1)   JMP_M : ld   t1, DS:[8*rax + 0x45eb80]
Instruction Commited: (0)741 PCState: (0x415b1a=>0x415b57).(1=>2)   JMP_M : wripi   , t1, 0
Instruction Commited: (0)838 PCState: (0x415b57=>0x415b5b).(0=>1)   MOV_R_M : ld   rax, DS:[rdi + 0x8]
Instruction Commited: (0)839 PCState: (0x415b5b=>0x415b5f).(0=>1)   ADD_R_I : limm   t1, 0x10
Instruction Commited: (0)840 PCState: (0x415b5b=>0x415b5f).(1=>2)   ADD_R_I : add   rdi, rdi, t1
Instruction Commited: (0)841 PCState: (0x415b5f=>0x415b65).(0=>1)   MOV_P_R : rdip   t7d, %ctrl153, 
Instruction Commited: (0)842 PCState: (0x415b5f=>0x415b65).(1=>2)   MOV_P_R : st   eax, DS:[t7 + 0x17d98b]
Instruction Commited: (0)843 PCState: (0x415b65=>0x415b68).(0=>1)   MOV_R_M : ld   rax, DS:[rdi]
Instruction Commited: (0)844 PCState: (0x415b68=>0x415b6b).(0=>1)   TEST_R_R : and   t0, rax, rax
Instruction Commited: (0)845 PCState: (0x415b6b=>0x415b6d).(0=>1)   JNZ_I : rdip   t1, %ctrl153, 
Instruction Commited: (0)846 PCState: (0x415b6b=>0x415b6d).(1=>2)   JNZ_I : limm   t2, 0xffffffffffffffa3
Instruction Commited: (0)847 PCState: (0x415b6b=>0x415b10).(2=>3)   JNZ_I : wrip   , t1, t2
Instruction Commited: (0)930 PCState: (0x415b10=>0x415b14).(0=>1)   SUB_R_I : limm   t1, 0x3
Instruction Commited: (0)931 PCState: (0x415b10=>0x415b14).(1=>2)   SUB_R_I : sub   rax, rax, t1
Instruction Commited: (0)932 PCState: (0x415b14=>0x415b18).(0=>1)   CMP_R_I : limm   t1, 0x14
Instruction Commited: (0)933 PCState: (0x415b14=>0x415b18).(1=>2)   CMP_R_I : sub   t0, rax, t1
Instruction Commited: (0)934 PCState: (0x415b18=>0x415b1a).(0=>1)   JNBE_I : rdip   t1, %ctrl153, 
Instruction Commited: (0)935 PCState: (0x415b18=>0x415b1a).(1=>2)   JNBE_I : limm   t2, 0x26
Instruction Commited: (0)936 PCState: (0x415b18=>0x415b1a).(2=>3)   JNBE_I : wrip   , t1, t2
Instruction Commited: (0)937 PCState: (0x415b1a=>0x415b21).(0=>1)   JMP_M : ld   t1, DS:[8*rax + 0x45eb80]
Instruction Commited: (0)938 PCState: (0x415b1a=>0x415c0e).(1=>2)   JMP_M : wripi   , t1, 0
Instruction Commited: (0)1027 PCState: (0x415c0e=>0x415c12).(0=>1)   MOV_R_M : ld   rax, DS:[rdi + 0x8]
Instruction Commited: (0)1028 PCState: (0x415c12=>0x415c16).(0=>1)   ADD_R_I : limm   t1, 0x10
Instruction Commited: (0)1029 PCState: (0x415c12=>0x415c16).(1=>2)   ADD_R_I : add   rdi, rdi, t1
Instruction Commited: (0)1030 PCState: (0x415c16=>0x415c1d).(0=>1)   MOV_P_R : rdip   t7, %ctrl153, 
Instruction Commited: (0)1031 PCState: (0x415c16=>0x415c1d).(1=>2)   MOV_P_R : st   rax, DS:[t7 + 0x17d8c3]
Instruction Commited: (0)1032 PCState: (0x415c1d=>0x415c20).(0=>1)   MOV_R_M : ld   rax, DS:[rdi]
Instruction Commited: (0)1033 PCState: (0x415c20=>0x415c23).(0=>1)   TEST_R_R : and   t0, rax, rax
Instruction Commited: (0)1034 PCState: (0x415c23=>0x415c29).(0=>1)   JNZ_I : rdip   t1, %ctrl153, 
Instruction Commited: (0)1035 PCState: (0x415c23=>0x415c29).(1=>2)   JNZ_I : limm   t2, 0xfffffffffffffee7
Instruction Commited: (0)1036 PCState: (0x415c23=>0x415b10).(2=>3)   JNZ_I : wrip   , t1, t2
Instruction Commited: (0)1087 PCState: (0x415b10=>0x415b14).(0=>1)   SUB_R_I : limm   t1, 0x3
Instruction Commited: (0)1088 PCState: (0x415b10=>0x415b14).(1=>2)   SUB_R_I : sub   rax, rax, t1
Instruction Commited: (0)1089 PCState: (0x415b14=>0x415b18).(0=>1)   CMP_R_I : limm   t1, 0x14
Instruction Commited: (0)1090 PCState: (0x415b14=>0x415b18).(1=>2)   CMP_R_I : sub   t0, rax, t1
Instruction Commited: (0)1091 PCState: (0x415b18=>0x415b1a).(0=>1)   JNBE_I : rdip   t1, %ctrl153, 
Instruction Commited: (0)1092 PCState: (0x415b18=>0x415b1a).(1=>2)   JNBE_I : limm   t2, 0x26
Instruction Commited: (0)1093 PCState: (0x415b18=>0x415b1a).(2=>3)   JNBE_I : wrip   , t1, t2
Instruction Commited: (0)1094 PCState: (0x415b1a=>0x415b21).(0=>1)   JMP_M : ld   t1, DS:[8*rax + 0x45eb80]
Instruction Commited: (0)1095 PCState: (0x415b1a=>0x415b40).(1=>2)   JMP_M : wripi   , t1, 0
Instruction Commited: (0)1178 PCState: (0x415b40=>0x415b44).(0=>1)   ADD_R_I : limm   t1, 0x10
Instruction Commited: (0)1179 PCState: (0x415b40=>0x415b44).(1=>2)   ADD_R_I : add   rdi, rdi, t1
Instruction Commited: (0)1180 PCState: (0x415b44=>0x415b47).(0=>1)   MOV_R_M : ld   rax, DS:[rdi]
Instruction Commited: (0)1181 PCState: (0x415b47=>0x415b4a).(0=>1)   TEST_R_R : and   t0, rax, rax
Instruction Commited: (0)1182 PCState: (0x415b4a=>0x415b4c).(0=>1)   JNZ_I : rdip   t1, %ctrl153, 
Instruction Commited: (0)1183 PCState: (0x415b4a=>0x415b4c).(1=>2)   JNZ_I : limm   t2, 0xffffffffffffffc4
Instruction Commited: (0)1184 PCState: (0x415b4a=>0x415b10).(2=>3)   JNZ_I : wrip   , t1, t2
Instruction Commited: (0)1185 PCState: (0x415b10=>0x415b14).(0=>1)   SUB_R_I : limm   t1, 0x3
Instruction Commited: (0)1186 PCState: (0x415b10=>0x415b14).(1=>2)   SUB_R_I : sub   rax, rax, t1
Instruction Commited: (0)1187 PCState: (0x415b14=>0x415b18).(0=>1)   CMP_R_I : limm   t1, 0x14
Instruction Commited: (0)1188 PCState: (0x415b14=>0x415b18).(1=>2)   CMP_R_I : sub   t0, rax, t1
Instruction Commited: (0)1189 PCState: (0x415b18=>0x415b1a).(0=>1)   JNBE_I : rdip   t1, %ctrl153, 
Instruction Commited: (0)1190 PCState: (0x415b18=>0x415b1a).(1=>2)   JNBE_I : limm   t2, 0x26
Instruction Commited: (0)1191 PCState: (0x415b18=>0x415b1a).(2=>3)   JNBE_I : wrip   , t1, t2
Instruction Commited: (0)1192 PCState: (0x415b1a=>0x415b21).(0=>1)   JMP_M : ld   t1, DS:[8*rax + 0x45eb80]
Instruction Commited: (0)1193 PCState: (0x415b1a=>0x415c2e).(1=>2)   JMP_M : wripi   , t1, 0
Instruction Commited: (0)1300 PCState: (0x415c2e=>0x415c32).(0=>1)   MOV_R_M : ld   rax, DS:[rdi + 0x8]
Instruction Commited: (0)1301 PCState: (0x415c32=>0x415c36).(0=>1)   ADD_R_I : limm   t1, 0x10
Instruction Commited: (0)1302 PCState: (0x415c32=>0x415c36).(1=>2)   ADD_R_I : add   rdi, rdi, t1
Instruction Commited: (0)1303 PCState: (0x415c36=>0x415c3d).(0=>1)   MOV_P_R : rdip   t7, %ctrl153, 
Instruction Commited: (0)1304 PCState: (0x415c36=>0x415c3d).(1=>2)   MOV_P_R : st   rax, DS:[t7 + 0x17d8d3]
Instruction Commited: (0)1305 PCState: (0x415c3d=>0x415c40).(0=>1)   MOV_R_M : ld   rax, DS:[rdi]
Instruction Commited: (0)1306 PCState: (0x415c40=>0x415c43).(0=>1)   TEST_R_R : and   t0, rax, rax
Instruction Commited: (0)1307 PCState: (0x415c43=>0x415c49).(0=>1)   JNZ_I : rdip   t1, %ctrl153, 
Instruction Commited: (0)1308 PCState: (0x415c43=>0x415c49).(1=>2)   JNZ_I : limm   t2, 0xfffffffffffffec7
Instruction Commited: (0)1309 PCState: (0x415c43=>0x415b10).(2=>3)   JNZ_I : wrip   , t1, t2
Instruction Commited: (0)1473 PCState: (0x415b10=>0x415b14).(0=>1)   SUB_R_I : limm   t1, 0x3
Instruction Commited: (0)1474 PCState: (0x415b10=>0x415b14).(1=>2)   SUB_R_I : sub   rax, rax, t1
Instruction Commited: (0)1475 PCState: (0x415b14=>0x415b18).(0=>1)   CMP_R_I : limm   t1, 0x14
Instruction Commited: (0)1476 PCState: (0x415b14=>0x415b18).(1=>2)   CMP_R_I : sub   t0, rax, t1
Instruction Commited: (0)1477 PCState: (0x415b18=>0x415b1a).(0=>1)   JNBE_I : rdip   t1, %ctrl153, 
Instruction Commited: (0)1478 PCState: (0x415b18=>0x415b1a).(1=>2)   JNBE_I : limm   t2, 0x26
Instruction Commited: (0)1479 PCState: (0x415b18=>0x415b1a).(2=>3)   JNBE_I : wrip   , t1, t2
Instruction Commited: (0)1480 PCState: (0x415b1a=>0x415b21).(0=>1)   JMP_M : ld   t1, DS:[8*rax + 0x45eb80]
Instruction Commited: (0)1481 PCState: (0x415b1a=>0x415b40).(1=>2)   JMP_M : wripi   , t1, 0
Instruction Commited: (0)1570 PCState: (0x415b40=>0x415b44).(0=>1)   ADD_R_I : limm   t1, 0x10
Instruction Commited: (0)1571 PCState: (0x415b40=>0x415b44).(1=>2)   ADD_R_I : add   rdi, rdi, t1
Instruction Commited: (0)1572 PCState: (0x415b44=>0x415b47).(0=>1)   MOV_R_M : ld   rax, DS:[rdi]
Instruction Commited: (0)1573 PCState: (0x415b47=>0x415b4a).(0=>1)   TEST_R_R : and   t0, rax, rax
Instruction Commited: (0)1574 PCState: (0x415b4a=>0x415b4c).(0=>1)   JNZ_I : rdip   t1, %ctrl153, 
Instruction Commited: (0)1575 PCState: (0x415b4a=>0x415b4c).(1=>2)   JNZ_I : limm   t2, 0xffffffffffffffc4
Instruction Commited: (0)1576 PCState: (0x415b4a=>0x415b10).(2=>3)   JNZ_I : wrip   , t1, t2
Instruction Commited: (0)1577 PCState: (0x415b10=>0x415b14).(0=>1)   SUB_R_I : limm   t1, 0x3
Instruction Commited: (0)1578 PCState: (0x415b10=>0x415b14).(1=>2)   SUB_R_I : sub   rax, rax, t1
Instruction Commited: (0)1579 PCState: (0x415b14=>0x415b18).(0=>1)   CMP_R_I : limm   t1, 0x14
Instruction Commited: (0)1580 PCState: (0x415b14=>0x415b18).(1=>2)   CMP_R_I : sub   t0, rax, t1
Instruction Commited: (0)1581 PCState: (0x415b18=>0x415b1a).(0=>1)   JNBE_I : rdip   t1, %ctrl153, 
Instruction Commited: (0)1582 PCState: (0x415b18=>0x415b1a).(1=>2)   JNBE_I : limm   t2, 0x26
Instruction Commited: (0)1583 PCState: (0x415b18=>0x415b1a).(2=>3)   JNBE_I : wrip   , t1, t2
Instruction Commited: (0)1584 PCState: (0x415b1a=>0x415b21).(0=>1)   JMP_M : ld   t1, DS:[8*rax + 0x45eb80]
Instruction Commited: (0)1585 PCState: (0x415b1a=>0x415b40).(1=>2)   JMP_M : wripi   , t1, 0
Instruction Commited: (0)1692 PCState: (0x415b40=>0x415b44).(0=>1)   ADD_R_I : limm   t1, 0x10
Instruction Commited: (0)1693 PCState: (0x415b40=>0x415b44).(1=>2)   ADD_R_I : add   rdi, rdi, t1
Instruction Commited: (0)1694 PCState: (0x415b44=>0x415b47).(0=>1)   MOV_R_M : ld   rax, DS:[rdi]
Instruction Commited: (0)1695 PCState: (0x415b47=>0x415b4a).(0=>1)   TEST_R_R : and   t0, rax, rax
Instruction Commited: (0)1696 PCState: (0x415b4a=>0x415b4c).(0=>1)   JNZ_I : rdip   t1, %ctrl153, 
Instruction Commited: (0)1697 PCState: (0x415b4a=>0x415b4c).(1=>2)   JNZ_I : limm   t2, 0xffffffffffffffc4
Instruction Commited: (0)1698 PCState: (0x415b4a=>0x415b10).(2=>3)   JNZ_I : wrip   , t1, t2
Instruction Commited: (0)1699 PCState: (0x415b10=>0x415b14).(0=>1)   SUB_R_I : limm   t1, 0x3
Instruction Commited: (0)1700 PCState: (0x415b10=>0x415b14).(1=>2)   SUB_R_I : sub   rax, rax, t1
Instruction Commited: (0)1701 PCState: (0x415b14=>0x415b18).(0=>1)   CMP_R_I : limm   t1, 0x14
Instruction Commited: (0)1702 PCState: (0x415b14=>0x415b18).(1=>2)   CMP_R_I : sub   t0, rax, t1
Instruction Commited: (0)1703 PCState: (0x415b18=>0x415b1a).(0=>1)   JNBE_I : rdip   t1, %ctrl153, 
Instruction Commited: (0)1704 PCState: (0x415b18=>0x415b1a).(1=>2)   JNBE_I : limm   t2, 0x26
Instruction Commited: (0)1705 PCState: (0x415b18=>0x415b1a).(2=>3)   JNBE_I : wrip   , t1, t2
Instruction Commited: (0)1706 PCState: (0x415b1a=>0x415b21).(0=>1)   JMP_M : ld   t1, DS:[8*rax + 0x45eb80]
Instruction Commited: (0)1707 PCState: (0x415b1a=>0x415b40).(1=>2)   JMP_M : wripi   , t1, 0
Instruction Commited: (0)1814 PCState: (0x415b40=>0x415b44).(0=>1)   ADD_R_I : limm   t1, 0x10
Instruction Commited: (0)1815 PCState: (0x415b40=>0x415b44).(1=>2)   ADD_R_I : add   rdi, rdi, t1
Instruction Commited: (0)1816 PCState: (0x415b44=>0x415b47).(0=>1)   MOV_R_M : ld   rax, DS:[rdi]
Instruction Commited: (0)1817 PCState: (0x415b47=>0x415b4a).(0=>1)   TEST_R_R : and   t0, rax, rax
Instruction Commited: (0)1818 PCState: (0x415b4a=>0x415b4c).(0=>1)   JNZ_I : rdip   t1, %ctrl153, 
Instruction Commited: (0)1819 PCState: (0x415b4a=>0x415b4c).(1=>2)   JNZ_I : limm   t2, 0xffffffffffffffc4
Instruction Commited: (0)1820 PCState: (0x415b4a=>0x415b10).(2=>3)   JNZ_I : wrip   , t1, t2
Instruction Commited: (0)1821 PCState: (0x415b10=>0x415b14).(0=>1)   SUB_R_I : limm   t1, 0x3
Instruction Commited: (0)1822 PCState: (0x415b10=>0x415b14).(1=>2)   SUB_R_I : sub   rax, rax, t1
Instruction Commited: (0)1823 PCState: (0x415b14=>0x415b18).(0=>1)   CMP_R_I : limm   t1, 0x14
Instruction Commited: (0)1824 PCState: (0x415b14=>0x415b18).(1=>2)   CMP_R_I : sub   t0, rax, t1
Instruction Commited: (0)1825 PCState: (0x415b18=>0x415b1a).(0=>1)   JNBE_I : rdip   t1, %ctrl153, 
Instruction Commited: (0)1826 PCState: (0x415b18=>0x415b1a).(1=>2)   JNBE_I : limm   t2, 0x26
Instruction Commited: (0)1827 PCState: (0x415b18=>0x415b1a).(2=>3)   JNBE_I : wrip   , t1, t2
Instruction Commited: (0)1828 PCState: (0x415b1a=>0x415b21).(0=>1)   JMP_M : ld   t1, DS:[8*rax + 0x45eb80]
Instruction Commited: (0)1829 PCState: (0x415b1a=>0x415bd3).(1=>2)   JMP_M : wripi   , t1, 0
Instruction Commited: (0)1936 PCState: (0x415bd3=>0x415bd6).(0=>1)   XOR_R_M : ld   t1d, DS:[rdi + 0x8]
Instruction Commited: (0)1937 PCState: (0x415bd3=>0x415bd6).(1=>2)   XOR_R_M : xor   ecx, ecx, t1d
Instruction Commited: (0)1938 PCState: (0x415bd6=>0x415bda).(0=>1)   ADD_R_I : limm   t1, 0x10
Instruction Commited: (0)1939 PCState: (0x415bd6=>0x415bda).(1=>2)   ADD_R_I : add   rdi, rdi, t1
Instruction Commited: (0)1940 PCState: (0x415bda=>0x415bdd).(0=>1)   OR_R_I : limm   t1d, 0x1
Instruction Commited: (0)1941 PCState: (0x415bda=>0x415bdd).(1=>2)   OR_R_I : or   edx, edx, t1d
Instruction Commited: (0)1942 PCState: (0x415bdd=>0x415be0).(0=>1)   MOV_R_M : ld   rax, DS:[rdi]
Instruction Commited: (0)1943 PCState: (0x415be0=>0x415be3).(0=>1)   TEST_R_R : and   t0, rax, rax
Instruction Commited: (0)1944 PCState: (0x415be3=>0x415be9).(0=>1)   JNZ_I : rdip   t1, %ctrl153, 
Instruction Commited: (0)1945 PCState: (0x415be3=>0x415be9).(1=>2)   JNZ_I : limm   t2, 0xffffffffffffff27
Instruction Commited: (0)1946 PCState: (0x415be3=>0x415b10).(2=>3)   JNZ_I : wrip   , t1, t2
Instruction Commited: (0)2105 PCState: (0x415b10=>0x415b14).(0=>1)   SUB_R_I : limm   t1, 0x3
Instruction Commited: (0)2106 PCState: (0x415b10=>0x415b14).(1=>2)   SUB_R_I : sub   rax, rax, t1
Instruction Commited: (0)2107 PCState: (0x415b14=>0x415b18).(0=>1)   CMP_R_I : limm   t1, 0x14
Instruction Commited: (0)2108 PCState: (0x415b14=>0x415b18).(1=>2)   CMP_R_I : sub   t0, rax, t1
Instruction Commited: (0)2109 PCState: (0x415b18=>0x415b1a).(0=>1)   JNBE_I : rdip   t1, %ctrl153, 
Instruction Commited: (0)2110 PCState: (0x415b18=>0x415b1a).(1=>2)   JNBE_I : limm   t2, 0x26
Instruction Commited: (0)2111 PCState: (0x415b18=>0x415b1a).(2=>3)   JNBE_I : wrip   , t1, t2
Instruction Commited: (0)2112 PCState: (0x415b1a=>0x415b21).(0=>1)   JMP_M : ld   t1, DS:[8*rax + 0x45eb80]
Instruction Commited: (0)2113 PCState: (0x415b1a=>0x415bb8).(1=>2)   JMP_M : wripi   , t1, 0
Instruction Commited: (0)2202 PCState: (0x415bb8=>0x415bbb).(0=>1)   XOR_R_M : ld   t1d, DS:[rdi + 0x8]
Instruction Commited: (0)2203 PCState: (0x415bb8=>0x415bbb).(1=>2)   XOR_R_M : xor   ecx, ecx, t1d
Instruction Commited: (0)2204 PCState: (0x415bbb=>0x415bbf).(0=>1)   ADD_R_I : limm   t1, 0x10
Instruction Commited: (0)2205 PCState: (0x415bbb=>0x415bbf).(1=>2)   ADD_R_I : add   rdi, rdi, t1
Instruction Commited: (0)2206 PCState: (0x415bbf=>0x415bc2).(0=>1)   OR_R_I : limm   t1d, 0x2
Instruction Commited: (0)2207 PCState: (0x415bbf=>0x415bc2).(1=>2)   OR_R_I : or   edx, edx, t1d
Instruction Commited: (0)2208 PCState: (0x415bc2=>0x415bc5).(0=>1)   MOV_R_M : ld   rax, DS:[rdi]
Instruction Commited: (0)2209 PCState: (0x415bc5=>0x415bc8).(0=>1)   TEST_R_R : and   t0, rax, rax
Instruction Commited: (0)2210 PCState: (0x415bc8=>0x415bce).(0=>1)   JNZ_I : rdip   t1, %ctrl153, 
Instruction Commited: (0)2211 PCState: (0x415bc8=>0x415bce).(1=>2)   JNZ_I : limm   t2, 0xffffffffffffff42
Instruction Commited: (0)2212 PCState: (0x415bc8=>0x415b10).(2=>3)   JNZ_I : wrip   , t1, t2
Instruction Commited: (0)2303 PCState: (0x415b10=>0x415b14).(0=>1)   SUB_R_I : limm   t1, 0x3
Instruction Commited: (0)2304 PCState: (0x415b10=>0x415b14).(1=>2)   SUB_R_I : sub   rax, rax, t1
Instruction Commited: (0)2305 PCState: (0x415b14=>0x415b18).(0=>1)   CMP_R_I : limm   t1, 0x14
Instruction Commited: (0)2306 PCState: (0x415b14=>0x415b18).(1=>2)   CMP_R_I : sub   t0, rax, t1
Instruction Commited: (0)2307 PCState: (0x415b18=>0x415b1a).(0=>1)   JNBE_I : rdip   t1, %ctrl153, 
Instruction Commited: (0)2308 PCState: (0x415b18=>0x415b1a).(1=>2)   JNBE_I : limm   t2, 0x26
Instruction Commited: (0)2309 PCState: (0x415b18=>0x415b1a).(2=>3)   JNBE_I : wrip   , t1, t2
Instruction Commited: (0)2310 PCState: (0x415b1a=>0x415b21).(0=>1)   JMP_M : ld   t1, DS:[8*rax + 0x45eb80]
Instruction Commited: (0)2311 PCState: (0x415b1a=>0x415ba0).(1=>2)   JMP_M : wripi   , t1, 0
Instruction Commited: (0)2400 PCState: (0x415ba0=>0x415ba3).(0=>1)   XOR_R_M : ld   t1d, DS:[rdi + 0x8]
Instruction Commited: (0)2401 PCState: (0x415ba0=>0x415ba3).(1=>2)   XOR_R_M : xor   esi, esi, t1d
Instruction Commited: (0)2402 PCState: (0x415ba3=>0x415ba7).(0=>1)   ADD_R_I : limm   t1, 0x10
Instruction Commited: (0)2403 PCState: (0x415ba3=>0x415ba7).(1=>2)   ADD_R_I : add   rdi, rdi, t1
Instruction Commited: (0)2404 PCState: (0x415ba7=>0x415baa).(0=>1)   OR_R_I : limm   t1d, 0x4
Instruction Commited: (0)2405 PCState: (0x415ba7=>0x415baa).(1=>2)   OR_R_I : or   edx, edx, t1d
Instruction Commited: (0)2406 PCState: (0x415baa=>0x415bad).(0=>1)   MOV_R_M : ld   rax, DS:[rdi]
Instruction Commited: (0)2407 PCState: (0x415bad=>0x415bb0).(0=>1)   TEST_R_R : and   t0, rax, rax
Instruction Commited: (0)2408 PCState: (0x415bb0=>0x415bb6).(0=>1)   JNZ_I : rdip   t1, %ctrl153, 
Instruction Commited: (0)2409 PCState: (0x415bb0=>0x415bb6).(1=>2)   JNZ_I : limm   t2, 0xffffffffffffff5a
Instruction Commited: (0)2410 PCState: (0x415bb0=>0x415b10).(2=>3)   JNZ_I : wrip   , t1, t2
Instruction Commited: (0)2532 PCState: (0x415b10=>0x415b14).(0=>1)   SUB_R_I : limm   t1, 0x3
Instruction Commited: (0)2533 PCState: (0x415b10=>0x415b14).(1=>2)   SUB_R_I : sub   rax, rax, t1
Instruction Commited: (0)2534 PCState: (0x415b14=>0x415b18).(0=>1)   CMP_R_I : limm   t1, 0x14
Instruction Commited: (0)2535 PCState: (0x415b14=>0x415b18).(1=>2)   CMP_R_I : sub   t0, rax, t1
Instruction Commited: (0)2536 PCState: (0x415b18=>0x415b1a).(0=>1)   JNBE_I : rdip   t1, %ctrl153, 
Instruction Commited: (0)2537 PCState: (0x415b18=>0x415b1a).(1=>2)   JNBE_I : limm   t2, 0x26
Instruction Commited: (0)2538 PCState: (0x415b18=>0x415b1a).(2=>3)   JNBE_I : wrip   , t1, t2
Instruction Commited: (0)2539 PCState: (0x415b1a=>0x415b21).(0=>1)   JMP_M : ld   t1, DS:[8*rax + 0x45eb80]
Instruction Commited: (0)2540 PCState: (0x415b1a=>0x415b88).(1=>2)   JMP_M : wripi   , t1, 0
Instruction Commited: (0)2638 PCState: (0x415b88=>0x415b8b).(0=>1)   XOR_R_M : ld   t1d, DS:[rdi + 0x8]
Instruction Commited: (0)2639 PCState: (0x415b88=>0x415b8b).(1=>2)   XOR_R_M : xor   esi, esi, t1d
Instruction Commited: (0)2640 PCState: (0x415b8b=>0x415b8f).(0=>1)   ADD_R_I : limm   t1, 0x10
Instruction Commited: (0)2641 PCState: (0x415b8b=>0x415b8f).(1=>2)   ADD_R_I : add   rdi, rdi, t1
Instruction Commited: (0)2642 PCState: (0x415b8f=>0x415b92).(0=>1)   OR_R_I : limm   t1d, 0x8
Instruction Commited: (0)2643 PCState: (0x415b8f=>0x415b92).(1=>2)   OR_R_I : or   edx, edx, t1d
Instruction Commited: (0)2644 PCState: (0x415b92=>0x415b95).(0=>1)   MOV_R_M : ld   rax, DS:[rdi]
Instruction Commited: (0)2645 PCState: (0x415b95=>0x415b98).(0=>1)   TEST_R_R : and   t0, rax, rax
Instruction Commited: (0)2646 PCState: (0x415b98=>0x415b9e).(0=>1)   JNZ_I : rdip   t1, %ctrl153, 
Instruction Commited: (0)2647 PCState: (0x415b98=>0x415b9e).(1=>2)   JNZ_I : limm   t2, 0xffffffffffffff72
Instruction Commited: (0)2648 PCState: (0x415b98=>0x415b10).(2=>3)   JNZ_I : wrip   , t1, t2
Instruction Commited: (0)2740 PCState: (0x415b10=>0x415b14).(0=>1)   SUB_R_I : limm   t1, 0x3
Instruction Commited: (0)2741 PCState: (0x415b10=>0x415b14).(1=>2)   SUB_R_I : sub   rax, rax, t1
Instruction Commited: (0)2742 PCState: (0x415b14=>0x415b18).(0=>1)   CMP_R_I : limm   t1, 0x14
Instruction Commited: (0)2743 PCState: (0x415b14=>0x415b18).(1=>2)   CMP_R_I : sub   t0, rax, t1
Instruction Commited: (0)2744 PCState: (0x415b18=>0x415b1a).(0=>1)   JNBE_I : rdip   t1, %ctrl153, 
Instruction Commited: (0)2745 PCState: (0x415b18=>0x415b1a).(1=>2)   JNBE_I : limm   t2, 0x26
Instruction Commited: (0)2746 PCState: (0x415b18=>0x415b1a).(2=>3)   JNBE_I : wrip   , t1, t2
Instruction Commited: (0)2747 PCState: (0x415b1a=>0x415b21).(0=>1)   JMP_M : ld   t1, DS:[8*rax + 0x45eb80]
Instruction Commited: (0)2748 PCState: (0x415b1a=>0x415b21).(1=>2)   JMP_M : wripi   , t1, 0
Instruction Commited: (0)2749 PCState: (0x415b21=>0x415b25).(0=>1)   MOV_R_M : ld   rax, DS:[rdi + 0x8]
Instruction Commited: (0)2750 PCState: (0x415b25=>0x415b2a).(0=>1)   MOV_R_I : limm   edx, 0xffffffffffffffff
Instruction Commited: (0)2751 PCState: (0x415b2a=>0x415b34).(0=>1)   MOV_P_I : rdip   t7d, %ctrl153, 
Instruction Commited: (0)2752 PCState: (0x415b2a=>0x415b34).(1=>2)   MOV_P_I : limm   t1d, 0x1
Instruction Commited: (0)2753 PCState: (0x415b2a=>0x415b34).(2=>3)   MOV_P_I : st   t1d, DS:[t7 + 0x17da5c]
Instruction Commited: (0)2754 PCState: (0x415b34=>0x415b3a).(0=>1)   MOV_P_R : rdip   t7d, %ctrl153, 
Instruction Commited: (0)2755 PCState: (0x415b34=>0x415b3a).(1=>2)   MOV_P_R : st   eax, DS:[t7 + 0x169ec6]
Instruction Commited: (0)2756 PCState: (0x415b3a=>0x415b3d).(0=>1)   NOP   
Instruction Commited: (0)2757 PCState: (0x415b3d=>0x415b40).(0=>1)   NOP   
Instruction Commited: (0)2758 PCState: (0x415b40=>0x415b44).(0=>1)   ADD_R_I : limm   t1, 0x10
Instruction Commited: (0)2759 PCState: (0x415b40=>0x415b44).(1=>2)   ADD_R_I : add   rdi, rdi, t1
Instruction Commited: (0)2760 PCState: (0x415b44=>0x415b47).(0=>1)   MOV_R_M : ld   rax, DS:[rdi]
Instruction Commited: (0)2761 PCState: (0x415b47=>0x415b4a).(0=>1)   TEST_R_R : and   t0, rax, rax
Instruction Commited: (0)2762 PCState: (0x415b4a=>0x415b4c).(0=>1)   JNZ_I : rdip   t1, %ctrl153, 
Instruction Commited: (0)2763 PCState: (0x415b4a=>0x415b4c).(1=>2)   JNZ_I : limm   t2, 0xffffffffffffffc4
Instruction Commited: (0)2764 PCState: (0x415b4a=>0x415b10).(2=>3)   JNZ_I : wrip   , t1, t2
Instruction Commited: (0)2765 PCState: (0x415b10=>0x415b14).(0=>1)   SUB_R_I : limm   t1, 0x3
Instruction Commited: (0)2766 PCState: (0x415b10=>0x415b14).(1=>2)   SUB_R_I : sub   rax, rax, t1
Instruction Commited: (0)2767 PCState: (0x415b14=>0x415b18).(0=>1)   CMP_R_I : limm   t1, 0x14
Instruction Commited: (0)2768 PCState: (0x415b14=>0x415b18).(1=>2)   CMP_R_I : sub   t0, rax, t1
Instruction Commited: (0)2769 PCState: (0x415b18=>0x415b1a).(0=>1)   JNBE_I : rdip   t1, %ctrl153, 
Instruction Commited: (0)2770 PCState: (0x415b18=>0x415b1a).(1=>2)   JNBE_I : limm   t2, 0x26
Instruction Commited: (0)2771 PCState: (0x415b18=>0x415b40).(2=>3)   JNBE_I : wrip   , t1, t2
Instruction Commited: (0)2966 PCState: (0x415b40=>0x415b44).(0=>1)   ADD_R_I : limm   t1, 0x10
Instruction Commited: (0)2967 PCState: (0x415b40=>0x415b44).(1=>2)   ADD_R_I : add   rdi, rdi, t1
Instruction Commited: (0)2968 PCState: (0x415b44=>0x415b47).(0=>1)   MOV_R_M : ld   rax, DS:[rdi]
Instruction Commited: (0)2969 PCState: (0x415b47=>0x415b4a).(0=>1)   TEST_R_R : and   t0, rax, rax
Instruction Commited: (0)2970 PCState: (0x415b4a=>0x415b4c).(0=>1)   JNZ_I : rdip   t1, %ctrl153, 
Instruction Commited: (0)2971 PCState: (0x415b4a=>0x415b4c).(1=>2)   JNZ_I : limm   t2, 0xffffffffffffffc4
Instruction Commited: (0)2972 PCState: (0x415b4a=>0x415b10).(2=>3)   JNZ_I : wrip   , t1, t2
Instruction Commited: (0)2973 PCState: (0x415b10=>0x415b14).(0=>1)   SUB_R_I : limm   t1, 0x3
Instruction Commited: (0)2974 PCState: (0x415b10=>0x415b14).(1=>2)   SUB_R_I : sub   rax, rax, t1
Instruction Commited: (0)2975 PCState: (0x415b14=>0x415b18).(0=>1)   CMP_R_I : limm   t1, 0x14
Instruction Commited: (0)2976 PCState: (0x415b14=>0x415b18).(1=>2)   CMP_R_I : sub   t0, rax, t1
Instruction Commited: (0)2977 PCState: (0x415b18=>0x415b1a).(0=>1)   JNBE_I : rdip   t1, %ctrl153, 
Instruction Commited: (0)2978 PCState: (0x415b18=>0x415b1a).(1=>2)   JNBE_I : limm   t2, 0x26
Instruction Commited: (0)2979 PCState: (0x415b18=>0x415b40).(2=>3)   JNBE_I : wrip   , t1, t2
Instruction Commited: (0)3064 PCState: (0x415b40=>0x415b44).(0=>1)   ADD_R_I : limm   t1, 0x10
Instruction Commited: (0)3065 PCState: (0x415b40=>0x415b44).(1=>2)   ADD_R_I : add   rdi, rdi, t1
Instruction Commited: (0)3066 PCState: (0x415b44=>0x415b47).(0=>1)   MOV_R_M : ld   rax, DS:[rdi]
Instruction Commited: (0)3067 PCState: (0x415b47=>0x415b4a).(0=>1)   TEST_R_R : and   t0, rax, rax
Instruction Commited: (0)3068 PCState: (0x415b4a=>0x415b4c).(0=>1)   JNZ_I : rdip   t1, %ctrl153, 
Instruction Commited: (0)3069 PCState: (0x415b4a=>0x415b4c).(1=>2)   JNZ_I : limm   t2, 0xffffffffffffffc4
Instruction Commited: (0)3070 PCState: (0x415b4a=>0x415b10).(2=>3)   JNZ_I : wrip   , t1, t2
Instruction Commited: (0)3071 PCState: (0x415b10=>0x415b14).(0=>1)   SUB_R_I : limm   t1, 0x3
Instruction Commited: (0)3072 PCState: (0x415b10=>0x415b14).(1=>2)   SUB_R_I : sub   rax, rax, t1
Instruction Commited: (0)3073 PCState: (0x415b14=>0x415b18).(0=>1)   CMP_R_I : limm   t1, 0x14
Instruction Commited: (0)3074 PCState: (0x415b14=>0x415b18).(1=>2)   CMP_R_I : sub   t0, rax, t1
Instruction Commited: (0)3075 PCState: (0x415b18=>0x415b1a).(0=>1)   JNBE_I : rdip   t1, %ctrl153, 
Instruction Commited: (0)3076 PCState: (0x415b18=>0x415b1a).(1=>2)   JNBE_I : limm   t2, 0x26
Instruction Commited: (0)3077 PCState: (0x415b18=>0x415b1a).(2=>3)   JNBE_I : wrip   , t1, t2
Instruction Commited: (0)3078 PCState: (0x415b1a=>0x415b21).(0=>1)   JMP_M : ld   t1, DS:[8*rax + 0x45eb80]
Instruction Commited: (0)3079 PCState: (0x415b1a=>0x415b40).(1=>2)   JMP_M : wripi   , t1, 0
Instruction Commited: (0)3145 PCState: (0x415b40=>0x415b44).(0=>1)   ADD_R_I : limm   t1, 0x10
Instruction Commited: (0)3146 PCState: (0x415b40=>0x415b44).(1=>2)   ADD_R_I : add   rdi, rdi, t1
Instruction Commited: (0)3147 PCState: (0x415b44=>0x415b47).(0=>1)   MOV_R_M : ld   rax, DS:[rdi]
Instruction Commited: (0)3148 PCState: (0x415b47=>0x415b4a).(0=>1)   TEST_R_R : and   t0, rax, rax
Instruction Commited: (0)3149 PCState: (0x415b4a=>0x415b4c).(0=>1)   JNZ_I : rdip   t1, %ctrl153, 
Instruction Commited: (0)3150 PCState: (0x415b4a=>0x415b4c).(1=>2)   JNZ_I : limm   t2, 0xffffffffffffffc4
Instruction Commited: (0)3151 PCState: (0x415b4a=>0x415b4c).(2=>3)   JNZ_I : wrip   , t1, t2
Instruction Commited: (0)3242 PCState: (0x415b4c=>0x415b4f).(0=>1)   CMP_R_I : limm   t1d, 0xf
Instruction Commited: (0)3243 PCState: (0x415b4c=>0x415b4f).(1=>2)   CMP_R_I : sub   t0d, edx, t1d
Instruction Commited: (0)3244 PCState: (0x415b4f=>0x415b55).(0=>1)   JZ_I : rdip   t1, %ctrl153, 
Instruction Commited: (0)3245 PCState: (0x415b4f=>0x415b55).(1=>2)   JZ_I : limm   t2, 0xf9
Instruction Commited: (0)3246 PCState: (0x415b4f=>0x415b55).(2=>3)   JZ_I : wrip   , t1, t2
Instruction Commited: (0)3247 PCState: (0x415b55=>0x415b57).(0=>1)   RET_NEAR : ld   t1, SS:[rsp]
Instruction Commited: (0)3248 PCState: (0x415b55=>0x415b57).(1=>2)   RET_NEAR : addi   rsp, rsp, 0x8
Instruction Commited: (0)3249 PCState: (0x415b55=>0x409a81).(2=>3)   RET_NEAR : wripi   , t1, 0
Instruction Commited: (0)3250 PCState: (0x409a81=>0x409a88).(0=>1)   MOV_R_P : rdip   t7d, %ctrl153, 
Instruction Commited: (0)3251 PCState: (0x409a81=>0x409a88).(1=>2)   MOV_R_P : ld   r10d, DS:[t7 + 0x176d28]
Instruction Commited: (0)3252 PCState: (0x409a88=>0x409a8b).(0=>1)   TEST_R_R : and   t0d, r10d, r10d
Instruction Commited: (0)3253 PCState: (0x409a8b=>0x409a91).(0=>1)   JNZ_I : rdip   t1, %ctrl153, 
Instruction Commited: (0)3254 PCState: (0x409a8b=>0x409a91).(1=>2)   JNZ_I : limm   t2, 0xa4
Instruction Commited: (0)3255 PCState: (0x409a8b=>0x409a91).(2=>3)   JNZ_I : wrip   , t1, t2
Instruction Commited: (0)3256 PCState: (0x409a91=>0x409a96).(0=>1)   LEA_R_M : lea   rbx, DS:[rsp + 0x20]
Instruction Commited: (0)3257 PCState: (0x409a96=>0x409a9e).(0=>1)   LEA_R_M : lea   r12, DS:[rsp + 0x1b0]
Instruction Commited: (0)3258 PCState: (0x409a9e=>0x409aa1).(0=>1)   MOV_R_R : mov   rdi, rdi, rbx
Instruction Commited: (0)3259 PCState: (0x409aa1=>0x409aa6).(0=>1)   CALL_NEAR_I : limm   t1, 0x97ea
Instruction Commited: (0)3260 PCState: (0x409aa1=>0x409aa6).(1=>2)   CALL_NEAR_I : rdip   t7, %ctrl153, 
Instruction Commited: (0)3261 PCState: (0x409aa1=>0x409aa6).(2=>3)   CALL_NEAR_I : stis   t7, SS:[rsp + 0xfffffffffffffff8]
Instruction Commited: (0)3262 PCState: (0x409aa1=>0x409aa6).(3=>4)   CALL_NEAR_I : subi   rsp, rsp, 0x8
Instruction Commited: (0)3263 PCState: (0x409aa1=>0x413290).(4=>5)   CALL_NEAR_I : wrip   , t7, t1
Instruction Commited: (0)3264 PCState: (0x413290=>0x413297).(0=>1)   MOV_R_I : limm   rax, 0x3f
Instruction Commited: (0)3265 PCState: (0x413297=>0x413299).(0=>1)   syscall    eax
Instruction Commited: (0)3266 PCState: (0x413299=>0x41329f).(0=>1)   CMP_R_I : limm   t1, 0xfffffffffffff001
Instruction Commited: (0)3267 PCState: (0x413299=>0x41329f).(1=>2)   CMP_R_I : sub   t0, rax, t1
Instruction Commited: (0)3268 PCState: (0x41329f=>0x4132a5).(0=>1)   JNB_I : rdip   t1, %ctrl153, 
Instruction Commited: (0)3269 PCState: (0x41329f=>0x4132a5).(1=>2)   JNB_I : limm   t2, 0x2feb
Instruction Commited: (0)3270 PCState: (0x41329f=>0x4132a5).(2=>3)   JNB_I : wrip   , t1, t2
Instruction Commited: (0)3271 PCState: (0x4132a5=>0x4132a6).(0=>1)   RET_NEAR : ld   t1, SS:[rsp]
Instruction Commited: (0)3272 PCState: (0x4132a5=>0x4132a6).(1=>2)   RET_NEAR : addi   rsp, rsp, 0x8
Instruction Commited: (0)3273 PCState: (0x4132a5=>0x409aa6).(2=>3)   RET_NEAR : wripi   , t1, 0
Instruction Commited: (0)3274 PCState: (0x409aa6=>0x409aa8).(0=>1)   TEST_R_R : and   t0d, eax, eax
Instruction Commited: (0)3275 PCState: (0x409aa8=>0x409aae).(0=>1)   JNZ_I : rdip   t1, %ctrl153, 
Instruction Commited: (0)3276 PCState: (0x409aa8=>0x409aae).(1=>2)   JNZ_I : limm   t2, 0xff
Instruction Commited: (0)3277 PCState: (0x409aa8=>0x409aae).(2=>3)   JNZ_I : wrip   , t1, t2
Instruction Commited: (0)3278 PCState: (0x409aae=>0x409ab5).(0=>1)   LEA_R_M : lea   r12, DS:[rbx + 0x82]
Instruction Commited: (0)3279 PCState: (0x409ab5=>0x409aba).(0=>1)   MOVZX_B_R_M : ld   t1b, DS:[r12]
Instruction Commited: (0)3280 PCState: (0x409ab5=>0x409aba).(1=>2)   MOVZX_B_R_M : zexti   edx, t1d, 0x7
Instruction Commited: (0)3281 PCState: (0x409aba=>0x409abc).(0=>1)   XOR_R_R : xor   edi, edi, edi
Instruction Commited: (0)3282 PCState: (0x409abc=>0x409abf).(0=>1)   XOR_R_R : xor   r8d, r8d, r8d
Instruction Commited: (0)3283 PCState: (0x409abf=>0x409ac2).(0=>1)   MOV_R_R : mov   rsi, rsi, r12
Instruction Commited: (0)3284 PCState: (0x409ac2=>0x409ac5).(0=>1)   LEA_R_M : lea   eax, DS:[rdx + 0xffffffffffffffd0]
Instruction Commited: (0)3285 PCState: (0x409ac5=>0x409ac7).(0=>1)   CMP_R_I : limm   t1b, 0x9
Instruction Commited: (0)3286 PCState: (0x409ac5=>0x409ac7).(1=>2)   CMP_R_I : sub   t0b, al, t1b
Instruction Commited: (0)3287 PCState: (0x409ac7=>0x409ac9).(0=>1)   JNBE_I : rdip   t1, %ctrl153, 
Instruction Commited: (0)3288 PCState: (0x409ac7=>0x409ac9).(1=>2)   JNBE_I : limm   t2, 0x4d
Instruction Commited: (0)3289 PCState: (0x409ac7=>0x409ac9).(2=>3)   JNBE_I : wrip   , t1, t2
Instruction Commited: (0)3290 PCState: (0x409ac9=>0x409acd).(0=>1)   NOP   
Instruction Commited: (0)3291 PCState: (0x409acd=>0x409ad0).(0=>1)   NOP   
Instruction Commited: (0)3292 PCState: (0x409ad0=>0x409ad3).(0=>1)   MOVSX_B_R_R : mov   t1b, t1b, dl
Instruction Commited: (0)3293 PCState: (0x409ad0=>0x409ad3).(1=>2)   MOVSX_B_R_R : sexti   eax, t1d, 0x7
Instruction Commited: (0)3294 PCState: (0x409ad3=>0x409ad6).(0=>1)   LEA_R_M : lea   ecx, DS:[rax + 0xffffffffffffffd0]
Instruction Commited: (0)3295 PCState: (0x409ad6=>0x409ad8).(0=>1)   JMP_I : rdip   t1, %ctrl153, 
Instruction Commited: (0)3296 PCState: (0x409ad6=>0x409ad8).(1=>2)   JMP_I : limm   t2, 0x11
Instruction Commited: (0)3297 PCState: (0x409ad6=>0x409ae9).(2=>3)   JMP_I : wrip   , t1, t2
Instruction Commited: (0)3356 PCState: (0x409ae9=>0x409aec).(0=>1)   INC_R : addi   rsi, rsi, 0x1
Instruction Commited: (0)3357 PCState: (0x409aec=>0x409aef).(0=>1)   MOVZX_B_R_M : ld   t1b, DS:[rsi]
Instruction Commited: (0)3358 PCState: (0x409aec=>0x409aef).(1=>2)   MOVZX_B_R_M : zexti   edx, t1d, 0x7
Instruction Commited: (0)3359 PCState: (0x409aef=>0x409af2).(0=>1)   LEA_R_M : lea   eax, DS:[rdx + 0xffffffffffffffd0]
Instruction Commited: (0)3360 PCState: (0x409af2=>0x409af4).(0=>1)   CMP_R_I : limm   t1b, 0x9
Instruction Commited: (0)3361 PCState: (0x409af2=>0x409af4).(1=>2)   CMP_R_I : sub   t0b, al, t1b
Instruction Commited: (0)3362 PCState: (0x409af4=>0x409af6).(0=>1)   JBE_I : rdip   t1, %ctrl153, 
Instruction Commited: (0)3363 PCState: (0x409af4=>0x409af6).(1=>2)   JBE_I : limm   t2, 0xffffffffffffffe2
Instruction Commited: (0)3364 PCState: (0x409af4=>0x409af6).(2=>3)   JBE_I : wrip   , t1, t2
Instruction Commited: (0)3365 PCState: (0x409af6=>0x409af9).(0=>1)   SAL_R_I : slli   edi, edi, 0x8
Instruction Commited: (0)3366 PCState: (0x409af9=>0x409afc).(0=>1)   INC_R : addi   r8d, r8d, 0x1
Instruction Commited: (0)3367 PCState: (0x409afc=>0x409aff).(0=>1)   INC_R : addi   rsi, rsi, 0x1
Instruction Commited: (0)3368 PCState: (0x409aff=>0x409b01).(0=>1)   OR_R_R : or   edi, edi, ecx
Instruction Commited: (0)3369 PCState: (0x409b01=>0x409b04).(0=>1)   CMP_R_I : limm   t1b, 0x2e
Instruction Commited: (0)3370 PCState: (0x409b01=>0x409b04).(1=>2)   CMP_R_I : sub   t0b, dl, t1b
Instruction Commited: (0)3371 PCState: (0x409b04=>0x409b06).(0=>1)   JNZ_I : rdip   t1, %ctrl153, 
Instruction Commited: (0)3372 PCState: (0x409b04=>0x409b06).(1=>2)   JNZ_I : limm   t2, 0xa
Instruction Commited: (0)3373 PCState: (0x409b04=>0x409b06).(2=>3)   JNZ_I : wrip   , t1, t2
Instruction Commited: (0)3374 PCState: (0x409b06=>0x409b09).(0=>1)   MOVZX_B_R_M : ld   t1b, DS:[rsi]
Instruction Commited: (0)3375 PCState: (0x409b06=>0x409b09).(1=>2)   MOVZX_B_R_M : zexti   edx, t1d, 0x7
Instruction Commited: (0)3376 PCState: (0x409b09=>0x409b0c).(0=>1)   LEA_R_M : lea   eax, DS:[rdx + 0xffffffffffffffd0]
Instruction Commited: (0)3377 PCState: (0x409b0c=>0x409b0e).(0=>1)   CMP_R_I : limm   t1b, 0x9
Instruction Commited: (0)3378 PCState: (0x409b0c=>0x409b0e).(1=>2)   CMP_R_I : sub   t0b, al, t1b
Instruction Commited: (0)3379 PCState: (0x409b0e=>0x409b10).(0=>1)   JBE_I : rdip   t1, %ctrl153, 
Instruction Commited: (0)3380 PCState: (0x409b0e=>0x409b10).(1=>2)   JBE_I : limm   t2, 0xffffffffffffffc0
Instruction Commited: (0)3381 PCState: (0x409b0e=>0x409ad0).(2=>3)   JBE_I : wrip   , t1, t2
Instruction Commited: (0)3420 PCState: (0x409ad0=>0x409ad3).(0=>1)   MOVSX_B_R_R : mov   t1b, t1b, dl
Instruction Commited: (0)3421 PCState: (0x409ad0=>0x409ad3).(1=>2)   MOVSX_B_R_R : sexti   eax, t1d, 0x7
Instruction Commited: (0)3422 PCState: (0x409ad3=>0x409ad6).(0=>1)   LEA_R_M : lea   ecx, DS:[rax + 0xffffffffffffffd0]
Instruction Commited: (0)3423 PCState: (0x409ad6=>0x409ad8).(0=>1)   JMP_I : rdip   t1, %ctrl153, 
Instruction Commited: (0)3424 PCState: (0x409ad6=>0x409ad8).(1=>2)   JMP_I : limm   t2, 0x11
Instruction Commited: (0)3425 PCState: (0x409ad6=>0x409ae9).(2=>3)   JMP_I : wrip   , t1, t2
Instruction Commited: (0)3426 PCState: (0x409ae9=>0x409aec).(0=>1)   INC_R : addi   rsi, rsi, 0x1
Instruction Commited: (0)3427 PCState: (0x409aec=>0x409aef).(0=>1)   MOVZX_B_R_M : ld   t1b, DS:[rsi]
Instruction Commited: (0)3428 PCState: (0x409aec=>0x409aef).(1=>2)   MOVZX_B_R_M : zexti   edx, t1d, 0x7
Instruction Commited: (0)3429 PCState: (0x409aef=>0x409af2).(0=>1)   LEA_R_M : lea   eax, DS:[rdx + 0xffffffffffffffd0]
Instruction Commited: (0)3430 PCState: (0x409af2=>0x409af4).(0=>1)   CMP_R_I : limm   t1b, 0x9
Instruction Commited: (0)3431 PCState: (0x409af2=>0x409af4).(1=>2)   CMP_R_I : sub   t0b, al, t1b
Instruction Commited: (0)3432 PCState: (0x409af4=>0x409af6).(0=>1)   JBE_I : rdip   t1, %ctrl153, 
Instruction Commited: (0)3433 PCState: (0x409af4=>0x409af6).(1=>2)   JBE_I : limm   t2, 0xffffffffffffffe2
Instruction Commited: (0)3434 PCState: (0x409af4=>0x409af6).(2=>3)   JBE_I : wrip   , t1, t2
Instruction Commited: (0)3435 PCState: (0x409af6=>0x409af9).(0=>1)   SAL_R_I : slli   edi, edi, 0x8
Instruction Commited: (0)3436 PCState: (0x409af9=>0x409afc).(0=>1)   INC_R : addi   r8d, r8d, 0x1
Instruction Commited: (0)3437 PCState: (0x409afc=>0x409aff).(0=>1)   INC_R : addi   rsi, rsi, 0x1
Instruction Commited: (0)3438 PCState: (0x409aff=>0x409b01).(0=>1)   OR_R_R : or   edi, edi, ecx
Instruction Commited: (0)3439 PCState: (0x409b01=>0x409b04).(0=>1)   CMP_R_I : limm   t1b, 0x2e
Instruction Commited: (0)3440 PCState: (0x409b01=>0x409b04).(1=>2)   CMP_R_I : sub   t0b, dl, t1b
Instruction Commited: (0)3441 PCState: (0x409b04=>0x409b06).(0=>1)   JNZ_I : rdip   t1, %ctrl153, 
Instruction Commited: (0)3442 PCState: (0x409b04=>0x409b06).(1=>2)   JNZ_I : limm   t2, 0xa
Instruction Commited: (0)3443 PCState: (0x409b04=>0x409b06).(2=>3)   JNZ_I : wrip   , t1, t2
Instruction Commited: (0)3444 PCState: (0x409b06=>0x409b09).(0=>1)   MOVZX_B_R_M : ld   t1b, DS:[rsi]
Instruction Commited: (0)3445 PCState: (0x409b06=>0x409b09).(1=>2)   MOVZX_B_R_M : zexti   edx, t1d, 0x7
Instruction Commited: (0)3446 PCState: (0x409b09=>0x409b0c).(0=>1)   LEA_R_M : lea   eax, DS:[rdx + 0xffffffffffffffd0]
Instruction Commited: (0)3447 PCState: (0x409b0c=>0x409b0e).(0=>1)   CMP_R_I : limm   t1b, 0x9
Instruction Commited: (0)3448 PCState: (0x409b0c=>0x409b0e).(1=>2)   CMP_R_I : sub   t0b, al, t1b
Instruction Commited: (0)3449 PCState: (0x409b0e=>0x409b10).(0=>1)   JBE_I : rdip   t1, %ctrl153, 
Instruction Commited: (0)3450 PCState: (0x409b0e=>0x409b10).(1=>2)   JBE_I : limm   t2, 0xffffffffffffffc0
Instruction Commited: (0)3451 PCState: (0x409b0e=>0x409ad0).(2=>3)   JBE_I : wrip   , t1, t2
Instruction Commited: (0)3452 PCState: (0x409ad0=>0x409ad3).(0=>1)   MOVSX_B_R_R : mov   t1b, t1b, dl
Instruction Commited: (0)3453 PCState: (0x409ad0=>0x409ad3).(1=>2)   MOVSX_B_R_R : sexti   eax, t1d, 0x7
Instruction Commited: (0)3454 PCState: (0x409ad3=>0x409ad6).(0=>1)   LEA_R_M : lea   ecx, DS:[rax + 0xffffffffffffffd0]
Instruction Commited: (0)3455 PCState: (0x409ad6=>0x409ad8).(0=>1)   JMP_I : rdip   t1, %ctrl153, 
Instruction Commited: (0)3456 PCState: (0x409ad6=>0x409ad8).(1=>2)   JMP_I : limm   t2, 0x11
Instruction Commited: (0)3457 PCState: (0x409ad6=>0x409ae9).(2=>3)   JMP_I : wrip   , t1, t2
Instruction Commited: (0)3458 PCState: (0x409ae9=>0x409aec).(0=>1)   INC_R : addi   rsi, rsi, 0x1
Instruction Commited: (0)3459 PCState: (0x409aec=>0x409aef).(0=>1)   MOVZX_B_R_M : ld   t1b, DS:[rsi]
Instruction Commited: (0)3460 PCState: (0x409aec=>0x409aef).(1=>2)   MOVZX_B_R_M : zexti   edx, t1d, 0x7
Instruction Commited: (0)3461 PCState: (0x409aef=>0x409af2).(0=>1)   LEA_R_M : lea   eax, DS:[rdx + 0xffffffffffffffd0]
Instruction Commited: (0)3462 PCState: (0x409af2=>0x409af4).(0=>1)   CMP_R_I : limm   t1b, 0x9
Instruction Commited: (0)3463 PCState: (0x409af2=>0x409af4).(1=>2)   CMP_R_I : sub   t0b, al, t1b
Instruction Commited: (0)3464 PCState: (0x409af4=>0x409af6).(0=>1)   JBE_I : rdip   t1, %ctrl153, 
Instruction Commited: (0)3465 PCState: (0x409af4=>0x409af6).(1=>2)   JBE_I : limm   t2, 0xffffffffffffffe2
Instruction Commited: (0)3466 PCState: (0x409af4=>0x409af6).(2=>3)   JBE_I : wrip   , t1, t2
Instruction Commited: (0)3467 PCState: (0x409af6=>0x409af9).(0=>1)   SAL_R_I : slli   edi, edi, 0x8
Instruction Commited: (0)3468 PCState: (0x409af9=>0x409afc).(0=>1)   INC_R : addi   r8d, r8d, 0x1
Instruction Commited: (0)3469 PCState: (0x409afc=>0x409aff).(0=>1)   INC_R : addi   rsi, rsi, 0x1
Instruction Commited: (0)3470 PCState: (0x409aff=>0x409b01).(0=>1)   OR_R_R : or   edi, edi, ecx
Instruction Commited: (0)3471 PCState: (0x409b01=>0x409b04).(0=>1)   CMP_R_I : limm   t1b, 0x2e
Instruction Commited: (0)3472 PCState: (0x409b01=>0x409b04).(1=>2)   CMP_R_I : sub   t0b, dl, t1b
Instruction Commited: (0)3473 PCState: (0x409b04=>0x409b06).(0=>1)   JNZ_I : rdip   t1, %ctrl153, 
Instruction Commited: (0)3474 PCState: (0x409b04=>0x409b06).(1=>2)   JNZ_I : limm   t2, 0xa
Instruction Commited: (0)3475 PCState: (0x409b04=>0x409b10).(2=>3)   JNZ_I : wrip   , t1, t2
Instruction Commited: (0)3575 PCState: (0x409b10=>0x409b14).(0=>1)   CMP_R_I : limm   t1d, 0x2
Instruction Commited: (0)3576 PCState: (0x409b10=>0x409b14).(1=>2)   CMP_R_I : sub   t0d, r8d, t1d
Instruction Commited: (0)3577 PCState: (0x409b14=>0x409b16).(0=>1)   JNLE_I : rdip   t1, %ctrl153, 
Instruction Commited: (0)3578 PCState: (0x409b14=>0x409b16).(1=>2)   JNLE_I : limm   t2, 0xd
Instruction Commited: (0)3579 PCState: (0x409b14=>0x409b23).(2=>3)   JNLE_I : wrip   , t1, t2
Instruction Commited: (0)3616 PCState: (0x409b23=>0x409b29).(0=>1)   CMP_R_I : limm   t1d, 0x20400
Instruction Commited: (0)3617 PCState: (0x409b23=>0x409b29).(1=>2)   CMP_R_I : sub   t0d, edi, t1d
Instruction Commited: (0)3618 PCState: (0x409b29=>0x409b2f).(0=>1)   JBE_I : rdip   t1, %ctrl153, 
Instruction Commited: (0)3619 PCState: (0x409b29=>0x409b2f).(1=>2)   JBE_I : limm   t2, 0xdc
Instruction Commited: (0)3620 PCState: (0x409b29=>0x409b2f).(2=>3)   JBE_I : wrip   , t1, t2
Instruction Commited: (0)3621 PCState: (0x409b2f=>0x409b35).(0=>1)   MOV_P_R : rdip   t7d, %ctrl153, 
Instruction Commited: (0)3622 PCState: (0x409b2f=>0x409b35).(1=>2)   MOV_P_R : st   edi, DS:[t7 + 0x1899fb]
Instruction Commited: (0)3623 PCState: (0x409b35=>0x409b3a).(0=>1)   CALL_NEAR_I : limm   t1, 0x4a6
Instruction Commited: (0)3624 PCState: (0x409b35=>0x409b3a).(1=>2)   CALL_NEAR_I : rdip   t7, %ctrl153, 
Instruction Commited: (0)3625 PCState: (0x409b35=>0x409b3a).(2=>3)   CALL_NEAR_I : stis   t7, SS:[rsp + 0xfffffffffffffff8]
Instruction Commited: (0)3626 PCState: (0x409b35=>0x409b3a).(3=>4)   CALL_NEAR_I : subi   rsp, rsp, 0x8
Instruction Commited: (0)3627 PCState: (0x409b35=>0x409fe0).(4=>5)   CALL_NEAR_I : wrip   , t7, t1
Instruction Commited: (0)3628 PCState: (0x409fe0=>0x409fe5).(0=>1)   MOV_R_I : limm   esi, 0x8
Instruction Commited: (0)3629 PCState: (0x409fe5=>0x409fea).(0=>1)   MOV_R_I : limm   edi, 0x20
Instruction Commited: (0)3630 PCState: (0x409fea=>0x409fef).(0=>1)   JMP_I : rdip   t1, %ctrl153, 
Instruction Commited: (0)3631 PCState: (0x409fea=>0x409fef).(1=>2)   JMP_I : limm   t2, 0xfffffffffffffd11
Instruction Commited: (0)3632 PCState: (0x409fea=>0x409d00).(2=>3)   JMP_I : wrip   , t1, t2
Instruction Commited: (0)3633 PCState: (0x409d00=>0x409d05).(0=>1)   MOV_M_R : st   r13, DS:[rsp + 0xffffffffffffffe8]
Instruction Commited: (0)3634 PCState: (0x409d05=>0x409d0a).(0=>1)   MOV_M_R : st   r14, DS:[rsp + 0xfffffffffffffff0]
Instruction Commited: (0)3635 PCState: (0x409d0a=>0x409d0d).(0=>1)   XOR_R_R : xor   r13d, r13d, r13d
Instruction Commited: (0)3636 PCState: (0x409d0d=>0x409d12).(0=>1)   MOV_M_R : st   r15, DS:[rsp + 0xfffffffffffffff8]
Instruction Commited: (0)3637 PCState: (0x409d12=>0x409d17).(0=>1)   MOV_M_R : st   rbx, DS:[rsp + 0xffffffffffffffd0]
Instruction Commited: (0)3638 PCState: (0x409d17=>0x409d1a).(0=>1)   XOR_R_R : xor   r14d, r14d, r14d
Instruction Commited: (0)3639 PCState: (0x409d1a=>0x409d1f).(0=>1)   MOV_M_R : st   rbp, DS:[rsp + 0xffffffffffffffd8]
Instruction Commited: (0)3640 PCState: (0x409d1f=>0x409d24).(0=>1)   MOV_M_R : st   r12, DS:[rsp + 0xffffffffffffffe0]
Instruction Commited: (0)3641 PCState: (0x409d24=>0x409d28).(0=>1)   SUB_R_I : limm   t1, 0x48
Instruction Commited: (0)3642 PCState: (0x409d24=>0x409d28).(1=>2)   SUB_R_I : sub   rsp, rsp, t1
Instruction Commited: (0)3643 PCState: (0x409d28=>0x409d2f).(0=>1)   MOV_R_P : rdip   t7, %ctrl153, 
Instruction Commited: (0)3644 PCState: (0x409d28=>0x409d2f).(1=>2)   MOV_R_P : ld   rax, DS:[t7 + 0x1897b1]
Instruction Commited: (0)3645 PCState: (0x409d2f=>0x409d32).(0=>1)   MOV_R_R : mov   r15, r15, rdi
Instruction Commited: (0)3646 PCState: (0x409d32=>0x409d3b).(0=>1)   MOV_M_I : limm   t1, 0
Instruction Commited: (0)3647 PCState: (0x409d32=>0x409d3b).(1=>2)   MOV_M_I : st   t1, DS:[rsp + 0x10]
Instruction Commited: (0)3648 PCState: (0x409d3b=>0x409d44).(0=>1)   MOV_M_I : limm   t1, 0
Instruction Commited: (0)3649 PCState: (0x409d3b=>0x409d44).(1=>2)   MOV_M_I : st   t1, DS:[rsp + 0x8]
Instruction Commited: (0)3650 PCState: (0x409d44=>0x409d48).(0=>1)   MOV_M_R : st   rsi, SS:[rsp]
Instruction Commited: (0)3651 PCState: (0x409d48=>0x409d4b).(0=>1)   TEST_R_R : and   t0, rax, rax
Instruction Commited: (0)3652 PCState: (0x409d4b=>0x409d4d).(0=>1)   JZ_I : rdip   t1, %ctrl153, 
Instruction Commited: (0)3653 PCState: (0x409d4b=>0x409d4d).(1=>2)   JZ_I : limm   t2, 0x35
Instruction Commited: (0)3654 PCState: (0x409d4b=>0x409d4d).(2=>3)   JZ_I : wrip   , t1, t2
Instruction Commited: (0)3655 PCState: (0x409d4d=>0x409d54).(0=>1)   MOV_R_P : rdip   t7, %ctrl153, 
Instruction Commited: (0)3656 PCState: (0x409d4d=>0x409d54).(1=>2)   MOV_R_P : ld   rdx, DS:[t7 + 0x1897bc]
Instruction Commited: (0)3657 PCState: (0x409d54=>0x409d57).(0=>1)   MOV_R_R : mov   rcx, rcx, rax
Instruction Commited: (0)3658 PCState: (0x409d57=>0x409d5f).(0=>1)   LEA_R_M : lea   rax, DS:[8*rdx]
Instruction Commited: (0)3659 PCState: (0x409d5f=>0x409d62).(0=>1)   SUB_R_R : sub   rax, rax, rdx
Instruction Commited: (0)3660 PCState: (0x409d62=>0x409d66).(0=>1)   LEA_R_M : lea   rax, DS:[8*rax + rcx]
Instruction Commited: (0)3661 PCState: (0x409d66=>0x409d69).(0=>1)   CMP_R_R : sub   t0, rax, rcx
Instruction Commited: (0)3662 PCState: (0x409d69=>0x409d6b).(0=>1)   JBE_I : rdip   t1, %ctrl153, 
Instruction Commited: (0)3663 PCState: (0x409d69=>0x409d6b).(1=>2)   JBE_I : limm   t2, 0x17
Instruction Commited: (0)3664 PCState: (0x409d69=>0x409d6b).(2=>3)   JBE_I : wrip   , t1, t2
Instruction Commited: (0)3665 PCState: (0x409d6b=>0x409d6e).(0=>1)   NOP   
Instruction Commited: (0)3666 PCState: (0x409d6e=>0x409d70).(0=>1)   NOP   
Instruction Commited: (0)3667 PCState: (0x409d70=>0x409d73).(0=>1)   CMP_M_I : limm   t2d, 0x7
Instruction Commited: (0)3668 PCState: (0x409d70=>0x409d73).(1=>2)   CMP_M_I : ld   t1d, DS:[rcx]
Instruction Commited: (0)3669 PCState: (0x409d70=>0x409d73).(2=>3)   CMP_M_I : sub   t0d, t1d, t2d
Instruction Commited: (0)3670 PCState: (0x409d73=>0x409d79).(0=>1)   JZ_I : rdip   t1, %ctrl153, 
Instruction Commited: (0)3671 PCState: (0x409d73=>0x409d79).(1=>2)   JZ_I : limm   t2, 0x1d9
Instruction Commited: (0)3672 PCState: (0x409d73=>0x409d79).(2=>3)   JZ_I : wrip   , t1, t2
Instruction Commited: (0)3673 PCState: (0x409d79=>0x409d7d).(0=>1)   ADD_R_I : limm   t1, 0x38
Instruction Commited: (0)3674 PCState: (0x409d79=>0x409d7d).(1=>2)   ADD_R_I : add   rcx, rcx, t1
Instruction Commited: (0)3675 PCState: (0x409d7d=>0x409d80).(0=>1)   CMP_R_R : sub   t0, rax, rcx
Instruction Commited: (0)3676 PCState: (0x409d80=>0x409d82).(0=>1)   JNBE_I : rdip   t1, %ctrl153, 
Instruction Commited: (0)3677 PCState: (0x409d80=>0x409d82).(1=>2)   JNBE_I : limm   t2, 0xffffffffffffffee
Instruction Commited: (0)3678 PCState: (0x409d80=>0x409d70).(2=>3)   JNBE_I : wrip   , t1, t2
Instruction Commited: (0)3722 PCState: (0x409d70=>0x409d73).(0=>1)   CMP_M_I : limm   t2d, 0x7
Instruction Commited: (0)3723 PCState: (0x409d70=>0x409d73).(1=>2)   CMP_M_I : ld   t1d, DS:[rcx]
Instruction Commited: (0)3724 PCState: (0x409d70=>0x409d73).(2=>3)   CMP_M_I : sub   t0d, t1d, t2d
Instruction Commited: (0)3725 PCState: (0x409d73=>0x409d79).(0=>1)   JZ_I : rdip   t1, %ctrl153, 
Instruction Commited: (0)3726 PCState: (0x409d73=>0x409d79).(1=>2)   JZ_I : limm   t2, 0x1d9
Instruction Commited: (0)3727 PCState: (0x409d73=>0x409d79).(2=>3)   JZ_I : wrip   , t1, t2
Instruction Commited: (0)3728 PCState: (0x409d79=>0x409d7d).(0=>1)   ADD_R_I : limm   t1, 0x38
Instruction Commited: (0)3729 PCState: (0x409d79=>0x409d7d).(1=>2)   ADD_R_I : add   rcx, rcx, t1
Instruction Commited: (0)3730 PCState: (0x409d7d=>0x409d80).(0=>1)   CMP_R_R : sub   t0, rax, rcx
Instruction Commited: (0)3731 PCState: (0x409d80=>0x409d82).(0=>1)   JNBE_I : rdip   t1, %ctrl153, 
Instruction Commited: (0)3732 PCState: (0x409d80=>0x409d82).(1=>2)   JNBE_I : limm   t2, 0xffffffffffffffee
Instruction Commited: (0)3733 PCState: (0x409d80=>0x409d70).(2=>3)   JNBE_I : wrip   , t1, t2
Instruction Commited: (0)3787 PCState: (0x409d70=>0x409d73).(0=>1)   CMP_M_I : limm   t2d, 0x7
Instruction Commited: (0)3788 PCState: (0x409d70=>0x409d73).(1=>2)   CMP_M_I : ld   t1d, DS:[rcx]
Instruction Commited: (0)3789 PCState: (0x409d70=>0x409d73).(2=>3)   CMP_M_I : sub   t0d, t1d, t2d
Instruction Commited: (0)3790 PCState: (0x409d73=>0x409d79).(0=>1)   JZ_I : rdip   t1, %ctrl153, 
Instruction Commited: (0)3791 PCState: (0x409d73=>0x409d79).(1=>2)   JZ_I : limm   t2, 0x1d9
Instruction Commited: (0)3792 PCState: (0x409d73=>0x409d79).(2=>3)   JZ_I : wrip   , t1, t2
Instruction Commited: (0)3793 PCState: (0x409d79=>0x409d7d).(0=>1)   ADD_R_I : limm   t1, 0x38
Instruction Commited: (0)3794 PCState: (0x409d79=>0x409d7d).(1=>2)   ADD_R_I : add   rcx, rcx, t1
Instruction Commited: (0)3795 PCState: (0x409d7d=>0x409d80).(0=>1)   CMP_R_R : sub   t0, rax, rcx
Instruction Commited: (0)3796 PCState: (0x409d80=>0x409d82).(0=>1)   JNBE_I : rdip   t1, %ctrl153, 
Instruction Commited: (0)3797 PCState: (0x409d80=>0x409d82).(1=>2)   JNBE_I : limm   t2, 0xffffffffffffffee
Instruction Commited: (0)3798 PCState: (0x409d80=>0x409d70).(2=>3)   JNBE_I : wrip   , t1, t2
Instruction Commited: (0)3860 PCState: (0x409d70=>0x409d73).(0=>1)   CMP_M_I : limm   t2d, 0x7
Instruction Commited: (0)3861 PCState: (0x409d70=>0x409d73).(1=>2)   CMP_M_I : ld   t1d, DS:[rcx]
Instruction Commited: (0)3862 PCState: (0x409d70=>0x409d73).(2=>3)   CMP_M_I : sub   t0d, t1d, t2d
Instruction Commited: (0)3863 PCState: (0x409d73=>0x409d79).(0=>1)   JZ_I : rdip   t1, %ctrl153, 
Instruction Commited: (0)3864 PCState: (0x409d73=>0x409d79).(1=>2)   JZ_I : limm   t2, 0x1d9
Instruction Commited: (0)3865 PCState: (0x409d73=>0x409d79).(2=>3)   JZ_I : wrip   , t1, t2
Instruction Commited: (0)3866 PCState: (0x409d79=>0x409d7d).(0=>1)   ADD_R_I : limm   t1, 0x38
Instruction Commited: (0)3867 PCState: (0x409d79=>0x409d7d).(1=>2)   ADD_R_I : add   rcx, rcx, t1
Instruction Commited: (0)3868 PCState: (0x409d7d=>0x409d80).(0=>1)   CMP_R_R : sub   t0, rax, rcx
Instruction Commited: (0)3869 PCState: (0x409d80=>0x409d82).(0=>1)   JNBE_I : rdip   t1, %ctrl153, 
Instruction Commited: (0)3870 PCState: (0x409d80=>0x409d82).(1=>2)   JNBE_I : limm   t2, 0xffffffffffffffee
Instruction Commited: (0)3871 PCState: (0x409d80=>0x409d70).(2=>3)   JNBE_I : wrip   , t1, t2
Instruction Commited: (0)3933 PCState: (0x409d70=>0x409d73).(0=>1)   CMP_M_I : limm   t2d, 0x7
Instruction Commited: (0)3934 PCState: (0x409d70=>0x409d73).(1=>2)   CMP_M_I : ld   t1d, DS:[rcx]
Instruction Commited: (0)3935 PCState: (0x409d70=>0x409d73).(2=>3)   CMP_M_I : sub   t0d, t1d, t2d
Instruction Commited: (0)3936 PCState: (0x409d73=>0x409d79).(0=>1)   JZ_I : rdip   t1, %ctrl153, 
Instruction Commited: (0)3937 PCState: (0x409d73=>0x409d79).(1=>2)   JZ_I : limm   t2, 0x1d9
Instruction Commited: (0)3938 PCState: (0x409d73=>0x409d79).(2=>3)   JZ_I : wrip   , t1, t2
Instruction Commited: (0)3939 PCState: (0x409d79=>0x409d7d).(0=>1)   ADD_R_I : limm   t1, 0x38
Instruction Commited: (0)3940 PCState: (0x409d79=>0x409d7d).(1=>2)   ADD_R_I : add   rcx, rcx, t1
Instruction Commited: (0)3941 PCState: (0x409d7d=>0x409d80).(0=>1)   CMP_R_R : sub   t0, rax, rcx
Instruction Commited: (0)3942 PCState: (0x409d80=>0x409d82).(0=>1)   JNBE_I : rdip   t1, %ctrl153, 
Instruction Commited: (0)3943 PCState: (0x409d80=>0x409d82).(1=>2)   JNBE_I : limm   t2, 0xffffffffffffffee
Instruction Commited: (0)3944 PCState: (0x409d80=>0x409d82).(2=>3)   JNBE_I : wrip   , t1, t2
Instruction Commited: (0)3945 PCState: (0x409d82=>0x409d85).(0=>1)   TEST_R_R : and   t0, r13, r13
Instruction Commited: (0)3946 PCState: (0x409d85=>0x409d88).(0=>1)   SETZ_R : movi   dl, dl, 0x1
Instruction Commited: (0)3947 PCState: (0x409d85=>0x409d88).(1=>2)   SETZ_R : movi   dl, dl, 0
Instruction Commited: (0)3948 PCState: (0x409d88=>0x409d8a).(0=>1)   XOR_R_R : xor   eax, eax, eax
Instruction Commited: (0)3949 PCState: (0x409d8a=>0x409d8e).(0=>1)   CMP_R_I : limm   t1, 0x20
Instruction Commited: (0)3950 PCState: (0x409d8a=>0x409d8e).(1=>2)   CMP_R_I : sub   t0, r15, t1
Instruction Commited: (0)3951 PCState: (0x409d8e=>0x409d91).(0=>1)   SETBE_R : movi   al, al, 0x1
Instruction Commited: (0)3952 PCState: (0x409d8e=>0x409d91).(1=>2)   SETBE_R : movi   al, al, 0
Instruction Commited: (0)3953 PCState: (0x409d91=>0x409d93).(0=>1)   TEST_R_R : and   t0d, edx, eax
Instruction Commited: (0)3954 PCState: (0x409d93=>0x409d95).(0=>1)   JZ_I : rdip   t1, %ctrl153, 
Instruction Commited: (0)3955 PCState: (0x409d93=>0x409d95).(1=>2)   JZ_I : limm   t2, 0x23
Instruction Commited: (0)3956 PCState: (0x409d93=>0x409d95).(2=>3)   JZ_I : wrip   , t1, t2
Instruction Commited: (0)3957 PCState: (0x409d95=>0x409d9a).(0=>1)   MOV_R_M : ld   rbx, DS:[rsp + 0x18]
Instruction Commited: (0)3958 PCState: (0x409d9a=>0x409d9f).(0=>1)   MOV_R_M : ld   rbp, DS:[rsp + 0x20]
Instruction Commited: (0)3959 PCState: (0x409d9f=>0x409da4).(0=>1)   MOV_R_M : ld   r12, DS:[rsp + 0x28]
Instruction Commited: (0)3960 PCState: (0x409da4=>0x409da9).(0=>1)   MOV_R_M : ld   r13, DS:[rsp + 0x30]
Instruction Commited: (0)3961 PCState: (0x409da9=>0x409dae).(0=>1)   MOV_R_M : ld   r14, DS:[rsp + 0x38]
Instruction Commited: (0)3962 PCState: (0x409dae=>0x409db3).(0=>1)   MOV_R_M : ld   r15, DS:[rsp + 0x40]
Instruction Commited: (0)3963 PCState: (0x409db3=>0x409db7).(0=>1)   ADD_R_I : limm   t1, 0x48
Instruction Commited: (0)3964 PCState: (0x409db3=>0x409db7).(1=>2)   ADD_R_I : add   rsp, rsp, t1
Instruction Commited: (0)3965 PCState: (0x409db7=>0x409db8).(0=>1)   RET_NEAR : ld   t1, SS:[rsp]
Instruction Commited: (0)3966 PCState: (0x409db7=>0x409db8).(1=>2)   RET_NEAR : addi   rsp, rsp, 0x8
Instruction Commited: (0)3967 PCState: (0x409db7=>0x409b3a).(2=>3)   RET_NEAR : wripi   , t1, 0
Instruction Commited: (0)3968 PCState: (0x409b3a=>0x409b3d).(0=>1)   TEST_R_R : and   t0, r15, r15
Instruction Commited: (0)3969 PCState: (0x409b3d=>0x409b3f).(0=>1)   JZ_I : rdip   t1, %ctrl153, 
Instruction Commited: (0)3970 PCState: (0x409b3d=>0x409b3f).(1=>2)   JZ_I : limm   t2, 0xc
Instruction Commited: (0)3971 PCState: (0x409b3d=>0x409b4b).(2=>3)   JZ_I : wrip   , t1, t2
Instruction Commited: (0)4006 PCState: (0x409b4b=>0x409b52).(0=>1)   MOV_R_P : rdip   t7, %ctrl153, 
Instruction Commited: (0)4007 PCState: (0x409b4b=>0x409b52).(1=>2)   MOV_R_P : ld   rdx, DS:[t7 + 0x1892a6]
Instruction Commited: (0)4008 PCState: (0x409b52=>0x409b55).(0=>1)   MOV_R_R : mov   rsi, rsi, r14
Instruction Commited: (0)4009 PCState: (0x409b55=>0x409b58).(0=>1)   MOV_R_R : mov   edi, edi, r13d
Instruction Commited: (0)4010 PCState: (0x409b58=>0x409b5d).(0=>1)   CALL_NEAR_I : limm   t1, 0xc713
Instruction Commited: (0)4011 PCState: (0x409b58=>0x409b5d).(1=>2)   CALL_NEAR_I : rdip   t7, %ctrl153, 
Instruction Commited: (0)4012 PCState: (0x409b58=>0x409b5d).(2=>3)   CALL_NEAR_I : stis   t7, SS:[rsp + 0xfffffffffffffff8]
Instruction Commited: (0)4013 PCState: (0x409b58=>0x409b5d).(3=>4)   CALL_NEAR_I : subi   rsp, rsp, 0x8
Instruction Commited: (0)4014 PCState: (0x409b58=>0x416270).(4=>5)   CALL_NEAR_I : wrip   , t7, t1
Instruction Commited: (0)4065 PCState: (0x416270=>0x416275).(0=>1)   JMP_I : rdip   t1, %ctrl153, 
Instruction Commited: (0)4066 PCState: (0x416270=>0x416275).(1=>2)   JMP_I : limm   t2, 0xffffffffffffff6b
Instruction Commited: (0)4067 PCState: (0x416270=>0x4161e0).(2=>3)   JMP_I : wrip   , t1, t2
Instruction Commited: (0)4071 PCState: (0x4161e0=>0x4161e5).(0=>1)   MOV_R_I : limm   eax, 0
Instruction Commited: (0)4072 PCState: (0x4161e5=>0x4161ea).(0=>1)   MOV_M_R : st   rbx, DS:[rsp + 0xffffffffffffffe8]
Instruction Commited: (0)4073 PCState: (0x4161ea=>0x4161ef).(0=>1)   MOV_M_R : st   rbp, DS:[rsp + 0xfffffffffffffff0]
Instruction Commited: (0)4074 PCState: (0x4161ef=>0x4161f4).(0=>1)   MOV_M_R : st   r12, DS:[rsp + 0xfffffffffffffff8]
Instruction Commited: (0)4075 PCState: (0x4161f4=>0x4161f7).(0=>1)   MOV_R_R : mov   rbx, rbx, rdx
Instruction Commited: (0)4076 PCState: (0x4161f7=>0x4161fb).(0=>1)   SUB_R_I : limm   t1, 0x18
Instruction Commited: (0)4077 PCState: (0x4161f7=>0x4161fb).(1=>2)   SUB_R_I : sub   rsp, rsp, t1
Instruction Commited: (0)4078 PCState: (0x4161fb=>0x4161fd).(0=>1)   XOR_R_R : xor   edx, edx, edx
Instruction Commited: (0)4079 PCState: (0x4161fd=>0x416200).(0=>1)   TEST_R_R : and   t0, rax, rax
Instruction Commited: (0)4080 PCState: (0x416200=>0x416203).(0=>1)   MOV_R_R : mov   r12d, r12d, edi
Instruction Commited: (0)4081 PCState: (0x416203=>0x416206).(0=>1)   MOV_R_R : mov   rbp, rbp, rsi
Instruction Commited: (0)4082 PCState: (0x416206=>0x416208).(0=>1)   JZ_I : rdip   t1, %ctrl153, 
Instruction Commited: (0)4083 PCState: (0x416206=>0x416208).(1=>2)   JZ_I : limm   t2, 0x10
Instruction Commited: (0)4084 PCState: (0x416206=>0x416218).(2=>3)   JZ_I : wrip   , t1, t2
Instruction Commited: (0)4129 PCState: (0x416218=>0x41621a).(0=>1)   TEST_R_R : and   t0d, edx, edx
Instruction Commited: (0)4130 PCState: (0x41621a=>0x416220).(0=>1)   MOV_P_R : rdip   t7d, %ctrl153, 
Instruction Commited: (0)4131 PCState: (0x41621a=>0x416220).(1=>2)   MOV_P_R : st   edx, DS:[t7 + 0x16a590]
Instruction Commited: (0)4132 PCState: (0x416220=>0x416222).(0=>1)   JZ_I : rdip   t1, %ctrl153, 
Instruction Commited: (0)4133 PCState: (0x416220=>0x416222).(1=>2)   JZ_I : limm   t2, 0x3f
Instruction Commited: (0)4134 PCState: (0x416220=>0x416261).(2=>3)   JZ_I : wrip   , t1, t2
Instruction Commited: (0)4193 PCState: (0x416261=>0x416268).(0=>1)   MOVZX_W_R_P : rdip   t7d, %ctrl153, 
Instruction Commited: (0)4194 PCState: (0x416261=>0x416268).(1=>2)   MOVZX_W_R_P : ld   t1w, DS:[t7 + 0x16a778]
Instruction Commited: (0)4195 PCState: (0x416261=>0x416268).(2=>3)   MOVZX_W_R_P : zexti   edi, t1d, 0xf
Instruction Commited: (0)4196 PCState: (0x416268=>0x41626d).(0=>1)   CALL_NEAR_I : limm   t1, 0x3c43
Instruction Commited: (0)4197 PCState: (0x416268=>0x41626d).(1=>2)   CALL_NEAR_I : rdip   t7, %ctrl153, 
Instruction Commited: (0)4198 PCState: (0x416268=>0x41626d).(2=>3)   CALL_NEAR_I : stis   t7, SS:[rsp + 0xfffffffffffffff8]
Instruction Commited: (0)4199 PCState: (0x416268=>0x41626d).(3=>4)   CALL_NEAR_I : subi   rsp, rsp, 0x8
Instruction Commited: (0)4200 PCState: (0x416268=>0x419eb0).(4=>5)   CALL_NEAR_I : wrip   , t7, t1
Instruction Commited: (0)4240 PCState: (0x419eb0=>0x419eb4).(0=>1)   FNSTCW_M : rdval   t1w, %ctrl193, 
Instruction Commited: (0)4241 PCState: (0x419eb0=>0x419eb4).(1=>2)   FNSTCW_M : st   t1w, DS:[rsp + 0xfffffffffffffffe]
Instruction Commited: (0)4242 PCState: (0x419eb4=>0x419eb9).(0=>1)   MOVZX_W_R_M : ld   t1w, DS:[rsp + 0xfffffffffffffffe]
Instruction Commited: (0)4243 PCState: (0x419eb4=>0x419eb9).(1=>2)   MOVZX_W_R_M : zexti   eax, t1d, 0xf
Instruction Commited: (0)4244 PCState: (0x419eb9=>0x419ebe).(0=>1)   AND_R_I : limm   t1w, 0xf3f
Instruction Commited: (0)4245 PCState: (0x419eb9=>0x419ebe).(1=>2)   AND_R_I : and   di, di, t1w
Instruction Commited: (0)4246 PCState: (0x419ebe=>0x419ec2).(0=>1)   AND_R_I : limm   t1w, 0xf0c0
Instruction Commited: (0)4247 PCState: (0x419ebe=>0x419ec2).(1=>2)   AND_R_I : and   ax, ax, t1w
Instruction Commited: (0)4248 PCState: (0x419ec2=>0x419ec4).(0=>1)   OR_R_R : or   edi, edi, eax
Instruction Commited: (0)4249 PCState: (0x419ec4=>0x419ec9).(0=>1)   MOV_M_R : st   di, DS:[rsp + 0xfffffffffffffffe]
Instruction Commited: (0)4317 PCState: (0x419ec9=>0x419ecd).(0=>1)   FLDCW_M : ld   t1w, DS:[rsp + 0xfffffffffffffffe]
Instruction Commited: (0)4318 PCState: (0x419ec9=>0x419ecd).(1=>2)   FLDCW_M : wrval   %ctrl193, t1w, 
Instruction Commited: (0)4319 PCState: (0x419ecd=>0x419ece).(0=>1)   RET_NEAR : ld   t1, SS:[rsp]
Instruction Commited: (0)4320 PCState: (0x419ecd=>0x419ece).(1=>2)   RET_NEAR : addi   rsp, rsp, 0x8
Instruction Commited: (0)4321 PCState: (0x419ecd=>0x41626d).(2=>3)   RET_NEAR : wripi   , t1, 0
Instruction Commited: (0)4322 PCState: (0x41626d=>0x41626f).(0=>1)   JMP_I : rdip   t1, %ctrl153, 
Instruction Commited: (0)4323 PCState: (0x41626d=>0x41626f).(1=>2)   JMP_I : limm   t2, 0xffffffffffffffb3
Instruction Commited: (0)4324 PCState: (0x41626d=>0x416222).(2=>3)   JMP_I : wrip   , t1, t2
Instruction Commited: (0)4405 PCState: (0x416222=>0x416229).(0=>1)   MOV_P_R : rdip   t7d, %ctrl153, 
Instruction Commited: (0)4406 PCState: (0x416222=>0x416229).(1=>2)   MOV_P_R : st   r12d, DS:[t7 + 0x17d36f]
Instruction Commited: (0)4407 PCState: (0x416229=>0x416230).(0=>1)   MOV_P_R : rdip   t7, %ctrl153, 
Instruction Commited: (0)4408 PCState: (0x416229=>0x416230).(1=>2)   MOV_P_R : st   rbp, DS:[t7 + 0x17d370]
Instruction Commited: (0)4409 PCState: (0x416230=>0x416237).(0=>1)   MOV_P_R : rdip   t7, %ctrl153, 
Instruction Commited: (0)4410 PCState: (0x416230=>0x416237).(1=>2)   MOV_P_R : st   rbx, DS:[t7 + 0x17cbc1]
Instruction Commited: (0)4411 PCState: (0x416237=>0x41623c).(0=>1)   CALL_NEAR_I : limm   t1, 0xffffffffffffff34
Instruction Commited: (0)4412 PCState: (0x416237=>0x41623c).(1=>2)   CALL_NEAR_I : rdip   t7, %ctrl153, 
Instruction Commited: (0)4413 PCState: (0x416237=>0x41623c).(2=>3)   CALL_NEAR_I : stis   t7, SS:[rsp + 0xfffffffffffffff8]
Instruction Commited: (0)4414 PCState: (0x416237=>0x41623c).(3=>4)   CALL_NEAR_I : subi   rsp, rsp, 0x8
Instruction Commited: (0)4415 PCState: (0x416237=>0x416170).(4=>5)   CALL_NEAR_I : wrip   , t7, t1
Instruction Commited: (0)4477 PCState: (0x416170=>0x416175).(0=>1)   MOV_M_R : st   rbx, DS:[rsp + 0xfffffffffffffff0]
Instruction Commited: (0)4478 PCState: (0x416175=>0x41617a).(0=>1)   MOV_M_R : st   rbp, DS:[rsp + 0xfffffffffffffff8]
Instruction Commited: (0)4479 PCState: (0x41617a=>0x41617e).(0=>1)   SUB_R_I : limm   t1, 0x18
Instruction Commited: (0)4480 PCState: (0x41617a=>0x41617e).(1=>2)   SUB_R_I : sub   rsp, rsp, t1
Instruction Commited: (0)4481 PCState: (0x41617e=>0x416184).(0=>1)   MOV_R_P : rdip   t7d, %ctrl153, 
Instruction Commited: (0)4482 PCState: (0x41617e=>0x416184).(1=>2)   MOV_R_P : ld   eax, DS:[t7 + 0x17d40c]
Instruction Commited: (0)4483 PCState: (0x416184=>0x416186).(0=>1)   TEST_R_R : and   t0d, eax, eax
Instruction Commited: (0)4484 PCState: (0x416186=>0x416188).(0=>1)   JZ_I : rdip   t1, %ctrl153, 
Instruction Commited: (0)4485 PCState: (0x416186=>0x416188).(1=>2)   JZ_I : limm   t2, 0xf
Instruction Commited: (0)4486 PCState: (0x416186=>0x416188).(2=>3)   JZ_I : wrip   , t1, t2
Instruction Commited: (0)4487 PCState: (0x416188=>0x41618d).(0=>1)   MOV_R_M : ld   rbx, DS:[rsp + 0x8]
Instruction Commited: (0)4488 PCState: (0x41618d=>0x416192).(0=>1)   MOV_R_M : ld   rbp, DS:[rsp + 0x10]
Instruction Commited: (0)4489 PCState: (0x416192=>0x416196).(0=>1)   ADD_R_I : limm   t1, 0x18
Instruction Commited: (0)4490 PCState: (0x416192=>0x416196).(1=>2)   ADD_R_I : add   rsp, rsp, t1
Instruction Commited: (0)4491 PCState: (0x416196=>0x416197).(0=>1)   RET_NEAR : ld   t1, SS:[rsp]
Instruction Commited: (0)4492 PCState: (0x416196=>0x416197).(1=>2)   RET_NEAR : addi   rsp, rsp, 0x8
Instruction Commited: (0)4493 PCState: (0x416196=>0x41623c).(2=>3)   RET_NEAR : wripi   , t1, 0
Instruction Commited: (0)4494 PCState: (0x41623c=>0x416241).(0=>1)   CALL_NEAR_I : limm   t1, 0xfffffffffffffa2f
Instruction Commited: (0)4495 PCState: (0x41623c=>0x416241).(1=>2)   CALL_NEAR_I : rdip   t7, %ctrl153, 
Instruction Commited: (0)4496 PCState: (0x41623c=>0x416241).(2=>3)   CALL_NEAR_I : stis   t7, SS:[rsp + 0xfffffffffffffff8]
Instruction Commited: (0)4497 PCState: (0x41623c=>0x416241).(3=>4)   CALL_NEAR_I : subi   rsp, rsp, 0x8
Instruction Commited: (0)4498 PCState: (0x41623c=>0x415c70).(4=>5)   CALL_NEAR_I : wrip   , t7, t1
Instruction Commited: (0)4536 PCState: (0x415c70=>0x415c72).(0=>1)   PUSH_R : stis   r13, SS:[rsp + 0xfffffffffffffff8]
Instruction Commited: (0)4537 PCState: (0x415c70=>0x415c72).(1=>2)   PUSH_R : subi   rsp, rsp, 0x8
Instruction Commited: (0)4538 PCState: (0x415c72=>0x415c74).(0=>1)   PUSH_R : stis   r12, SS:[rsp + 0xfffffffffffffff8]
Instruction Commited: (0)4539 PCState: (0x415c72=>0x415c74).(1=>2)   PUSH_R : subi   rsp, rsp, 0x8
Instruction Commited: (0)4540 PCState: (0x415c74=>0x415c75).(0=>1)   PUSH_R : stis   rbp, SS:[rsp + 0xfffffffffffffff8]
Instruction Commited: (0)4541 PCState: (0x415c74=>0x415c75).(1=>2)   PUSH_R : subi   rsp, rsp, 0x8
Instruction Commited: (0)4542 PCState: (0x415c75=>0x415c76).(0=>1)   PUSH_R : stis   rbx, SS:[rsp + 0xfffffffffffffff8]
Instruction Commited: (0)4543 PCState: (0x415c75=>0x415c76).(1=>2)   PUSH_R : subi   rsp, rsp, 0x8
Instruction Commited: (0)4544 PCState: (0x415c76=>0x415c7a).(0=>1)   SUB_R_I : limm   t1, 0x8
Instruction Commited: (0)4545 PCState: (0x415c76=>0x415c7a).(1=>2)   SUB_R_I : sub   rsp, rsp, t1
Instruction Commited: (0)4546 PCState: (0x415c7a=>0x415c7c).(0=>1)   RDTSC : rdtsc   t1d, %ctrl26, 
Instruction Commited: (0)4547 PCState: (0x415c7a=>0x415c7c).(1=>2)   RDTSC : mov   eax, eax, t1d
Instruction Commited: (0)4548 PCState: (0x415c7a=>0x415c7c).(2=>3)   RDTSC : srli   rdx, t1, 0x20
Instruction Commited: (0)4549 PCState: (0x415c7c=>0x415c80).(0=>1)   SAL_R_I : slli   rdx, rdx, 0x20
Instruction Commited: (0)4550 PCState: (0x415c80=>0x415c82).(0=>1)   MOV_R_R : mov   eax, eax, eax
Instruction Commited: (0)4551 PCState: (0x415c82=>0x415c85).(0=>1)   OR_R_R : or   rdx, rdx, rax
Instruction Commited: (0)4552 PCState: (0x415c85=>0x415c8d).(0=>1)   CMP_P_I : limm   t2, 0
Instruction Commited: (0)4553 PCState: (0x415c85=>0x415c8d).(1=>2)   CMP_P_I : rdip   t7, %ctrl153, 
Instruction Commited: (0)4554 PCState: (0x415c85=>0x415c8d).(2=>3)   CMP_P_I : ld   t1, DS:[t7 + 0x17d8b3]
Instruction Commited: (0)4555 PCState: (0x415c85=>0x415c8d).(3=>4)   CMP_P_I : sub   t0, t1, t2
Instruction Commited: (0)4556 PCState: (0x415c8d=>0x415c94).(0=>1)   MOV_P_R : rdip   t7, %ctrl153, 
Instruction Commited: (0)4557 PCState: (0x415c8d=>0x415c94).(1=>2)   MOV_P_R : st   rdx, DS:[t7 + 0x17d82c]
Instruction Commited: (0)4558 PCState: (0x415c94=>0x415c96).(0=>1)   JNZ_I : rdip   t1, %ctrl153, 
Instruction Commited: (0)4559 PCState: (0x415c94=>0x415c96).(1=>2)   JNZ_I : limm   t2, 0xe
Instruction Commited: (0)4560 PCState: (0x415c94=>0x415ca4).(2=>3)   JNZ_I : wrip   , t1, t2
Instruction Commited: (0)4580 PCState: (0x415ca4=>0x415ca9).(0=>1)   MOV_R_I : limm   edi, 0x45ed49
Instruction Commited: (0)4581 PCState: (0x415ca9=>0x415cae).(0=>1)   MOV_R_I : limm   ebx, 0x471707
Instruction Commited: (0)4582 PCState: (0x415cae=>0x415cb3).(0=>1)   CALL_NEAR_I : limm   t1, 0x466d
[...]
Instruction Commited: (0)29158 PCState: (0x40b92c=>0x40b990).(2=>3)   JNZ_I : wrip   , t1, t2
Instruction Commited: (0)29187 PCState: (0x40b990=>0x40b993).(0=>1)   OR_M_I : limm   t2d, 0x2
Instruction Commited: (0)29188 PCState: (0x40b990=>0x40b993).(1=>2)   OR_M_I : ldst   t1d, DS:[rbx]
Instruction Commited: (0)29189 PCState: (0x40b990=>0x40b993).(2=>3)   OR_M_I : or   t1d, t1d, t2d
Instruction Commited: (0)29190 PCState: (0x40b990=>0x40b993).(3=>4)   OR_M_I : st   t1d, DS:[rbx]
Instruction Commited: (0)29191 PCState: (0x40b993=>0x40b99a).(0=>1)   LEA_R_M : lea   rdx, DS:[rbx + 0x84]
Instruction Commited: (0)29192 PCState: (0x40b99a=>0x40b9a1).(0=>1)   LEA_R_M : lea   rsi, DS:[rbx + 0x83]
Instruction Commited: (0)29193 PCState: (0x40b9a1=>0x40b9a3).(0=>1)   XOR_R_R : xor   ecx, ecx, ecx
Instruction Commited: (0)29194 PCState: (0x40b9a3=>0x40b9a5).(0=>1)   JMP_I : rdip   t1, %ctrl153, 
Instruction Commited: (0)29195 PCState: (0x40b9a3=>0x40b9a5).(1=>2)   JMP_I : limm   t2, 0xffffffffffffff96
Instruction Commited: (0)29196 PCState: (0x40b9a3=>0x40b93b).(2=>3)   JMP_I : wrip   , t1, t2
Instruction Commited: (0)29204 PCState: (0x40b93b=>0x40b93e).(0=>1)   MOV_R_R : mov   rdi, rdi, rbx
Instruction Commited: (0)29205 PCState: (0x40b93e=>0x40b943).(0=>1)   CALL_NEAR_I : limm   t1, 0xfffffffffffffd2d
Instruction Commited: (0)29206 PCState: (0x40b93e=>0x40b943).(1=>2)   CALL_NEAR_I : rdip   t7, %ctrl153, 
Instruction Commited: (0)29207 PCState: (0x40b93e=>0x40b943).(2=>3)   CALL_NEAR_I : stis   t7, SS:[rsp + 0xfffffffffffffff8]
Instruction Commited: (0)29208 PCState: (0x40b93e=>0x40b943).(3=>4)   CALL_NEAR_I : subi   rsp, rsp, 0x8
Instruction Commited: (0)29209 PCState: (0x40b93e=>0x40b670).(4=>5)   CALL_NEAR_I : wrip   , t7, t1
Instruction Commited: (0)29210 PCState: (0x40b670=>0x40b675).(0=>1)   MOV_M_R : st   rbx, DS:[rsp + 0xffffffffffffffe0]
Instruction Commited: (0)29211 PCState: (0x40b675=>0x40b67a).(0=>1)   MOV_M_R : st   rbp, DS:[rsp + 0xffffffffffffffe8]
Instruction Commited: (0)29212 PCState: (0x40b67a=>0x40b67d).(0=>1)   MOV_R_R : mov   rbx, rbx, rdi
Instruction Commited: (0)29213 PCState: (0x40b67d=>0x40b682).(0=>1)   MOV_M_R : st   r12, DS:[rsp + 0xfffffffffffffff0]
Instruction Commited: (0)29214 PCState: (0x40b682=>0x40b687).(0=>1)   MOV_M_R : st   r13, DS:[rsp + 0xfffffffffffffff8]
Instruction Commited: (0)29215 PCState: (0x40b687=>0x40b68b).(0=>1)   SUB_R_I : limm   t1, 0x28
Instruction Commited: (0)29216 PCState: (0x40b687=>0x40b68b).(1=>2)   SUB_R_I : sub   rsp, rsp, t1
Instruction Commited: (0)29217 PCState: (0x40b68b=>0x40b68f).(0=>1)   MOV_R_M : ld   rdi, DS:[rdi + 0x38]
Instruction Commited: (0)29218 PCState: (0x40b68f=>0x40b692).(0=>1)   MOV_R_R : mov   rbp, rbp, rsi
Instruction Commited: (0)29219 PCState: (0x40b692=>0x40b695).(0=>1)   MOV_R_R : mov   r12, r12, rdx
Instruction Commited: (0)29220 PCState: (0x40b695=>0x40b698).(0=>1)   MOV_R_R : mov   r13d, r13d, ecx
Instruction Commited: (0)29221 PCState: (0x40b698=>0x40b69b).(0=>1)   TEST_R_R : and   t0, rdi, rdi
Instruction Commited: (0)29222 PCState: (0x40b69b=>0x40b69d).(0=>1)   JZ_I : rdip   t1, %ctrl153, 
Instruction Commited: (0)29223 PCState: (0x40b69b=>0x40b69d).(1=>2)   JZ_I : limm   t2, 0x23
Instruction Commited: (0)29224 PCState: (0x40b69b=>0x40b69d).(2=>3)   JZ_I : wrip   , t1, t2
Instruction Commited: (0)29300 PCState: (0x40b69d=>0x40b69f).(0=>1)   MOV_R_M : ld   eax, DS:[rbx]
Instruction Commited: (0)29301 PCState: (0x40b69f=>0x40b6a1).(0=>1)   TEST_R_I : limm   t1b, 0x1
Instruction Commited: (0)29302 PCState: (0x40b69f=>0x40b6a1).(1=>2)   TEST_R_I : and   t0b, al, t1b
Instruction Commited: (0)29303 PCState: (0x40b6a1=>0x40b6a3).(0=>1)   JNZ_I : rdip   t1, %ctrl153, 
Instruction Commited: (0)29304 PCState: (0x40b6a1=>0x40b6a3).(1=>2)   JNZ_I : limm   t2, 0x1f
Instruction Commited: (0)29305 PCState: (0x40b6a1=>0x40b6a3).(2=>3)   JNZ_I : wrip   , t1, t2
Instruction Commited: (0)29306 PCState: (0x40b6a3=>0x40b6a7).(0=>1)   MOV_R_M : ld   rsi, DS:[rbx + 0x40]
Instruction Commited: (0)29307 PCState: (0x40b6a7=>0x40b6aa).(0=>1)   SUB_R_R : sub   rsi, rsi, rdi
Instruction Commited: (0)29308 PCState: (0x40b6aa=>0x40b6b1).(0=>1)   ADD_R_I : limm   t1, 0xfff
Instruction Commited: (0)29309 PCState: (0x40b6aa=>0x40b6b1).(1=>2)   ADD_R_I : add   rsi, rsi, t1
Instruction Commited: (0)29310 PCState: (0x40b6b1=>0x40b6b8).(0=>1)   AND_R_I : limm   t1, 0xfffffffffffff000
Instruction Commited: (0)29311 PCState: (0x40b6b1=>0x40b6b8).(1=>2)   AND_R_I : and   rsi, rsi, t1
Instruction Commited: (0)29312 PCState: (0x40b6b8=>0x40b6bd).(0=>1)   CALL_NEAR_I : limm   t1, 0x8a73
Instruction Commited: (0)29313 PCState: (0x40b6b8=>0x40b6bd).(1=>2)   CALL_NEAR_I : rdip   t7, %ctrl153, 
Instruction Commited: (0)29314 PCState: (0x40b6b8=>0x40b6bd).(2=>3)   CALL_NEAR_I : stis   t7, SS:[rsp + 0xfffffffffffffff8]
Instruction Commited: (0)29315 PCState: (0x40b6b8=>0x40b6bd).(3=>4)   CALL_NEAR_I : subi   rsp, rsp, 0x8
Instruction Commited: (0)29316 PCState: (0x40b6b8=>0x414130).(4=>5)   CALL_NEAR_I : wrip   , t7, t1
Instruction Commited: (0)29382 PCState: (0x414130=>0x414137).(0=>1)   MOV_R_I : limm   rax, 0xb
Instruction Commited: (0)29383 PCState: (0x414137=>0x414139).(0=>1)   syscall    eax
Instruction Commited: (0)29384 PCState: (0x414139=>0x41413f).(0=>1)   CMP_R_I : limm   t1, 0xfffffffffffff001
Instruction Commited: (0)29385 PCState: (0x414139=>0x41413f).(1=>2)   CMP_R_I : sub   t0, rax, t1
Instruction Commited: (0)29386 PCState: (0x41413f=>0x414145).(0=>1)   JNB_I : rdip   t1, %ctrl153, 
Instruction Commited: (0)29387 PCState: (0x41413f=>0x414145).(1=>2)   JNB_I : limm   t2, 0x214b
Instruction Commited: (0)29388 PCState: (0x41413f=>0x414145).(2=>3)   JNB_I : wrip   , t1, t2
Instruction Commited: (0)29389 PCState: (0x414145=>0x414146).(0=>1)   RET_NEAR : ld   t1, SS:[rsp]
Instruction Commited: (0)29390 PCState: (0x414145=>0x414146).(1=>2)   RET_NEAR : addi   rsp, rsp, 0x8
Instruction Commited: (0)29391 PCState: (0x414145=>0x40b6bd).(2=>3)   RET_NEAR : wripi   , t1, 0
Instruction Commited: (0)29392 PCState: (0x40b6bd=>0x40b6c0).(0=>1)   NOP   
Instruction Commited: (0)29393 PCState: (0x40b6c0=>0x40b6c2).(0=>1)   MOV_R_M : ld   eax, DS:[rbx]
Instruction Commited: (0)29394 PCState: (0x40b6c2=>0x40b6c5).(0=>1)   TEST_R_R : and   t0d, r13d, r13d
Instruction Commited: (0)29395 PCState: (0x40b6c5=>0x40b6c9).(0=>1)   MOV_M_R : st   rbp, DS:[rbx + 0x38]
Instruction Commited: (0)29396 PCState: (0x40b6c9=>0x40b6cd).(0=>1)   MOV_M_R : st   r12, DS:[rbx + 0x40]
Instruction Commited: (0)29397 PCState: (0x40b6cd=>0x40b6cf).(0=>1)   JZ_I : rdip   t1, %ctrl153, 
Instruction Commited: (0)29398 PCState: (0x40b6cd=>0x40b6cf).(1=>2)   JZ_I : limm   t2, 0x21
Instruction Commited: (0)29399 PCState: (0x40b6cd=>0x40b6f0).(2=>3)   JZ_I : wrip   , t1, t2
Instruction Commited: (0)29467 PCState: (0x40b6f0=>0x40b6f3).(0=>1)   OR_R_I : limm   t1d, 0x1
Instruction Commited: (0)29468 PCState: (0x40b6f0=>0x40b6f3).(1=>2)   OR_R_I : or   eax, eax, t1d
Instruction Commited: (0)29469 PCState: (0x40b6f3=>0x40b6f5).(0=>1)   MOV_M_R : st   eax, DS:[rbx]
Instruction Commited: (0)29470 PCState: (0x40b6f5=>0x40b6fa).(0=>1)   MOV_R_M : ld   rbx, DS:[rsp + 0x8]
Instruction Commited: (0)29471 PCState: (0x40b6fa=>0x40b6ff).(0=>1)   MOV_R_M : ld   rbp, DS:[rsp + 0x10]
Instruction Commited: (0)29472 PCState: (0x40b6ff=>0x40b704).(0=>1)   MOV_R_M : ld   r12, DS:[rsp + 0x18]
Instruction Commited: (0)29473 PCState: (0x40b704=>0x40b709).(0=>1)   MOV_R_M : ld   r13, DS:[rsp + 0x20]
Instruction Commited: (0)29474 PCState: (0x40b709=>0x40b70d).(0=>1)   ADD_R_I : limm   t1, 0x28
Instruction Commited: (0)29475 PCState: (0x40b709=>0x40b70d).(1=>2)   ADD_R_I : add   rsp, rsp, t1
Instruction Commited: (0)29476 PCState: (0x40b70d=>0x40b70e).(0=>1)   RET_NEAR : ld   t1, SS:[rsp]
Instruction Commited: (0)29477 PCState: (0x40b70d=>0x40b70e).(1=>2)   RET_NEAR : addi   rsp, rsp, 0x8
Instruction Commited: (0)29478 PCState: (0x40b70d=>0x40b943).(2=>3)   RET_NEAR : wripi   , t1, 0
Instruction Commited: (0)29479 PCState: (0x40b943=>0x40b94b).(0=>1)   MOV_M_I : limm   t1, 0
Instruction Commited: (0)29480 PCState: (0x40b943=>0x40b94b).(1=>2)   MOV_M_I : st   t1, DS:[rbx + 0x30]
Instruction Commited: (0)29481 PCState: (0x40b94b=>0x40b953).(0=>1)   MOV_M_I : limm   t1, 0
Instruction Commited: (0)29482 PCState: (0x40b94b=>0x40b953).(1=>2)   MOV_M_I : st   t1, DS:[rbx + 0x28]
Instruction Commited: (0)29483 PCState: (0x40b953=>0x40b956).(0=>1)   MOV_R_R : mov   rdx, rdx, rbx
Instruction Commited: (0)29484 PCState: (0x40b956=>0x40b95e).(0=>1)   MOV_M_I : limm   t1, 0
Instruction Commited: (0)29485 PCState: (0x40b956=>0x40b95e).(1=>2)   MOV_M_I : st   t1, DS:[rbx + 0x20]
Instruction Commited: (0)29486 PCState: (0x40b95e=>0x40b966).(0=>1)   MOV_M_I : limm   t1, 0
Instruction Commited: (0)29487 PCState: (0x40b95e=>0x40b966).(1=>2)   MOV_M_I : st   t1, DS:[rbx + 0x10]
Instruction Commited: (0)29488 PCState: (0x40b966=>0x40b96e).(0=>1)   MOV_M_I : limm   t1, 0
Instruction Commited: (0)29489 PCState: (0x40b966=>0x40b96e).(1=>2)   MOV_M_I : st   t1, DS:[rbx + 0x8]
Instruction Commited: (0)29490 PCState: (0x40b96e=>0x40b976).(0=>1)   MOV_M_I : limm   t1, 0
Instruction Commited: (0)29491 PCState: (0x40b96e=>0x40b976).(1=>2)   MOV_M_I : st   t1, DS:[rbx + 0x18]
Instruction Commited: (0)29492 PCState: (0x40b976=>0x40b97a).(0=>1)   MOV_R_M : ld   rbx, SS:[rsp]
Instruction Commited: (0)29493 PCState: (0x40b97a=>0x40b97f).(0=>1)   MOV_R_M : ld   rbp, DS:[rsp + 0x8]
Instruction Commited: (0)29494 PCState: (0x40b97f=>0x40b982).(0=>1)   MOV_R_R : mov   rax, rax, rdx
Instruction Commited: (0)29495 PCState: (0x40b982=>0x40b987).(0=>1)   MOV_R_M : ld   r12, DS:[rsp + 0x10]
Instruction Commited: (0)29496 PCState: (0x40b987=>0x40b98b).(0=>1)   ADD_R_I : limm   t1, 0x18
Instruction Commited: (0)29497 PCState: (0x40b987=>0x40b98b).(1=>2)   ADD_R_I : add   rsp, rsp, t1
Instruction Commited: (0)29498 PCState: (0x40b98b=>0x40b98c).(0=>1)   RET_NEAR : ld   t1, SS:[rsp]
Instruction Commited: (0)29499 PCState: (0x40b98b=>0x40b98c).(1=>2)   RET_NEAR : addi   rsp, rsp, 0x8
Instruction Commited: (0)29500 PCState: (0x40b98b=>0x427cd9).(2=>3)   RET_NEAR : wripi   , t1, 0
Instruction Commited: (0)29501 PCState: (0x427cd9=>0x427cdb).(0=>1)   XOR_R_R : xor   edx, edx, edx
Instruction Commited: (0)29502 PCState: (0x427cdb=>0x427cde).(0=>1)   TEST_R_R : and   t0, rax, rax
Instruction Commited: (0)29503 PCState: (0x427cde=>0x427ce0).(0=>1)   JZ_I : rdip   t1, %ctrl153, 
Instruction Commited: (0)29504 PCState: (0x427cde=>0x427ce0).(1=>2)   JZ_I : limm   t2, 0x1f
Instruction Commited: (0)29505 PCState: (0x427cde=>0x427ce0).(2=>3)   JZ_I : wrip   , t1, t2
Instruction Commited: (0)29506 PCState: (0x427ce0=>0x427ce4).(0=>1)   MOV_R_M : ld   rax, DS:[rbx + 0x38]
Instruction Commited: (0)29507 PCState: (0x427ce4=>0x427ce7).(0=>1)   MOV_R_R : mov   rdx, rdx, rbx
Instruction Commited: (0)29508 PCState: (0x427ce7=>0x427ceb).(0=>1)   MOV_M_R : st   rax, DS:[rbx + 0x30]
Instruction Commited: (0)29509 PCState: (0x427ceb=>0x427cef).(0=>1)   MOV_M_R : st   rax, DS:[rbx + 0x28]
Instruction Commited: (0)29510 PCState: (0x427cef=>0x427cf3).(0=>1)   MOV_M_R : st   rax, DS:[rbx + 0x20]
Instruction Commited: (0)29511 PCState: (0x427cf3=>0x427cf7).(0=>1)   MOV_M_R : st   rax, DS:[rbx + 0x18]
Instruction Commited: (0)29512 PCState: (0x427cf7=>0x427cfb).(0=>1)   MOV_M_R : st   rax, DS:[rbx + 0x8]
Instruction Commited: (0)29513 PCState: (0x427cfb=>0x427cff).(0=>1)   MOV_M_R : st   rax, DS:[rbx + 0x10]
Instruction Commited: (0)29514 PCState: (0x427cff=>0x427d00).(0=>1)   POP_R : ldis   t1, SS:[rsp]
Instruction Commited: (0)29515 PCState: (0x427cff=>0x427d00).(1=>2)   POP_R : addi   rsp, rsp, 0x8
Instruction Commited: (0)29516 PCState: (0x427cff=>0x427d00).(2=>3)   POP_R : mov   rbx, rbx, t1
Instruction Commited: (0)29517 PCState: (0x427d00=>0x427d03).(0=>1)   MOV_R_R : mov   rax, rax, rdx
Instruction Commited: (0)29518 PCState: (0x427d03=>0x427d04).(0=>1)   RET_NEAR : ld   t1, SS:[rsp]
Instruction Commited: (0)29519 PCState: (0x427d03=>0x427d04).(1=>2)   RET_NEAR : addi   rsp, rsp, 0x8
Instruction Commited: (0)29520 PCState: (0x427d03=>0x40c051).(2=>3)   RET_NEAR : wripi   , t1, 0
Instruction Commited: (0)29521 PCState: (0x40c051=>0x40c053).(0=>1)   JMP_I : rdip   t1, %ctrl153, 
Instruction Commited: (0)29522 PCState: (0x40c051=>0x40c053).(1=>2)   JMP_I : limm   t2, 0xffffffffffffffce
Instruction Commited: (0)29523 PCState: (0x40c051=>0x40c021).(2=>3)   JMP_I : wrip   , t1, t2
Instruction Commited: (0)29524 PCState: (0x40c021=>0x40c02b).(0=>1)   MOV_M_I : limm   t1d, 0xffffffffffffffff
Instruction Commited: (0)29525 PCState: (0x40c021=>0x40c02b).(1=>2)   MOV_M_I : st   t1d, DS:[rbx + 0xa8]
Instruction Commited: (0)29526 PCState: (0x40c02b=>0x40c02f).(0=>1)   MOV_R_M : ld   rbx, DS:[rbx + 0x68]
Instruction Commited: (0)29527 PCState: (0x40c02f=>0x40c032).(0=>1)   TEST_R_R : and   t0, rbx, rbx
Instruction Commited: (0)29528 PCState: (0x40c032=>0x40c034).(0=>1)   JNZ_I : rdip   t1, %ctrl153, 
Instruction Commited: (0)29529 PCState: (0x40c032=>0x40c034).(1=>2)   JNZ_I : limm   t2, 0xffffffffffffffd4
Instruction Commited: (0)29530 PCState: (0x40c032=>0x40c008).(2=>3)   JNZ_I : wrip   , t1, t2
Instruction Commited: (0)29531 PCState: (0x40c008=>0x40c00a).(0=>1)   MOV_R_M : ld   eax, DS:[rbx]
Instruction Commited: (0)29532 PCState: (0x40c00a=>0x40c00c).(0=>1)   TEST_R_I : limm   t1b, 0x2
Instruction Commited: (0)29533 PCState: (0x40c00a=>0x40c00c).(1=>2)   TEST_R_I : and   t0b, al, t1b
Instruction Commited: (0)29534 PCState: (0x40c00c=>0x40c00e).(0=>1)   JNZ_I : rdip   t1, %ctrl153, 
Instruction Commited: (0)29535 PCState: (0x40c00c=>0x40c00e).(1=>2)   JNZ_I : limm   t2, 0x13
Instruction Commited: (0)29536 PCState: (0x40c00c=>0x40c00e).(2=>3)   JNZ_I : wrip   , t1, t2
Instruction Commited: (0)29537 PCState: (0x40c00e=>0x40c010).(0=>1)   TEST_R_I : limm   t1b, 0x8
Instruction Commited: (0)29538 PCState: (0x40c00e=>0x40c010).(1=>2)   TEST_R_I : and   t0b, al, t1b
Instruction Commited: (0)29539 PCState: (0x40c010=>0x40c012).(0=>1)   JZ_I : rdip   t1, %ctrl153, 
Instruction Commited: (0)29540 PCState: (0x40c010=>0x40c012).(1=>2)   JZ_I : limm   t2, 0x5
Instruction Commited: (0)29541 PCState: (0x40c010=>0x40c012).(2=>3)   JZ_I : wrip   , t1, t2
Instruction Commited: (0)29640 PCState: (0x40c012=>0x40c015).(0=>1)   TEST_R_I : limm   t1b, 0x10
Instruction Commited: (0)29641 PCState: (0x40c012=>0x40c015).(1=>2)   TEST_R_I : and   t0b, ah, t1b
Instruction Commited: (0)29642 PCState: (0x40c015=>0x40c017).(0=>1)   JZ_I : rdip   t1, %ctrl153, 
Instruction Commited: (0)29643 PCState: (0x40c015=>0x40c017).(1=>2)   JZ_I : limm   t2, 0xa
Instruction Commited: (0)29644 PCState: (0x40c015=>0x40c021).(2=>3)   JZ_I : wrip   , t1, t2
Instruction Commited: (0)29709 PCState: (0x40c021=>0x40c02b).(0=>1)   MOV_M_I : limm   t1d, 0xffffffffffffffff
Instruction Commited: (0)29710 PCState: (0x40c021=>0x40c02b).(1=>2)   MOV_M_I : st   t1d, DS:[rbx + 0xa8]
Instruction Commited: (0)29711 PCState: (0x40c02b=>0x40c02f).(0=>1)   MOV_R_M : ld   rbx, DS:[rbx + 0x68]
Instruction Commited: (0)29712 PCState: (0x40c02f=>0x40c032).(0=>1)   TEST_R_R : and   t0, rbx, rbx
Instruction Commited: (0)29713 PCState: (0x40c032=>0x40c034).(0=>1)   JNZ_I : rdip   t1, %ctrl153, 
Instruction Commited: (0)29714 PCState: (0x40c032=>0x40c034).(1=>2)   JNZ_I : limm   t2, 0xffffffffffffffd4
Instruction Commited: (0)29715 PCState: (0x40c032=>0x40c034).(2=>3)   JNZ_I : wrip   , t1, t2
Instruction Commited: (0)29795 PCState: (0x40c034=>0x40c038).(0=>1)   ADD_R_I : limm   t1, 0x8
Instruction Commited: (0)29796 PCState: (0x40c034=>0x40c038).(1=>2)   ADD_R_I : add   rsp, rsp, t1
Instruction Commited: (0)29797 PCState: (0x40c038=>0x40c03a).(0=>1)   MOV_R_R : mov   eax, eax, ebp
Instruction Commited: (0)29798 PCState: (0x40c03a=>0x40c03b).(0=>1)   POP_R : ldis   t1, SS:[rsp]
Instruction Commited: (0)29799 PCState: (0x40c03a=>0x40c03b).(1=>2)   POP_R : addi   rsp, rsp, 0x8
Instruction Commited: (0)29800 PCState: (0x40c03a=>0x40c03b).(2=>3)   POP_R : mov   rbx, rbx, t1
Instruction Commited: (0)29801 PCState: (0x40c03b=>0x40c03c).(0=>1)   POP_R : ldis   t1, SS:[rsp]
Instruction Commited: (0)29802 PCState: (0x40c03b=>0x40c03c).(1=>2)   POP_R : addi   rsp, rsp, 0x8
Instruction Commited: (0)29803 PCState: (0x40c03b=>0x40c03c).(2=>3)   POP_R : mov   rbp, rbp, t1
Instruction Commited: (0)29804 PCState: (0x40c03c=>0x40c03d).(0=>1)   RET_NEAR : ld   t1, SS:[rsp]
Instruction Commited: (0)29805 PCState: (0x40c03c=>0x40c03d).(1=>2)   RET_NEAR : addi   rsp, rsp, 0x8
Instruction Commited: (0)29806 PCState: (0x40c03c=>0x40a927).(2=>3)   RET_NEAR : wripi   , t1, 0
Instruction Commited: (0)29807 PCState: (0x40a927=>0x40a92b).(0=>1)   ADD_R_I : limm   t1, 0x8
Instruction Commited: (0)29808 PCState: (0x40a927=>0x40a92b).(1=>2)   ADD_R_I : add   rbx, rbx, t1
Instruction Commited: (0)29809 PCState: (0x40a92b=>0x40a932).(0=>1)   CMP_R_I : limm   t1, 0x476400
Instruction Commited: (0)29810 PCState: (0x40a92b=>0x40a932).(1=>2)   CMP_R_I : sub   t0, rbx, t1
Instruction Commited: (0)29811 PCState: (0x40a932=>0x40a934).(0=>1)   JB_I : rdip   t1, %ctrl153, 
Instruction Commited: (0)29812 PCState: (0x40a932=>0x40a934).(1=>2)   JB_I : limm   t2, 0xfffffffffffffff1
Instruction Commited: (0)29813 PCState: (0x40a932=>0x40a934).(2=>3)   JB_I : wrip   , t1, t2
Instruction Commited: (0)29814 PCState: (0x40a934=>0x40a936).(0=>1)   MOV_R_R : mov   edi, edi, ebp
Instruction Commited: (0)29815 PCState: (0x40a936=>0x40a93b).(0=>1)   CALL_NEAR_I : limm   t1, 0x8975
Instruction Commited: (0)29816 PCState: (0x40a936=>0x40a93b).(1=>2)   CALL_NEAR_I : rdip   t7, %ctrl153, 
Instruction Commited: (0)29817 PCState: (0x40a936=>0x40a93b).(2=>3)   CALL_NEAR_I : stis   t7, SS:[rsp + 0xfffffffffffffff8]
Instruction Commited: (0)29818 PCState: (0x40a936=>0x40a93b).(3=>4)   CALL_NEAR_I : subi   rsp, rsp, 0x8
Instruction Commited: (0)29819 PCState: (0x40a936=>0x4132b0).(4=>5)   CALL_NEAR_I : wrip   , t7, t1
Instruction Commited: (0)29820 PCState: (0x4132b0=>0x4132b2).(0=>1)   PUSH_R : stis   r13, SS:[rsp + 0xfffffffffffffff8]
Instruction Commited: (0)29821 PCState: (0x4132b0=>0x4132b2).(1=>2)   PUSH_R : subi   rsp, rsp, 0x8
Instruction Commited: (0)29822 PCState: (0x4132b2=>0x4132b8).(0=>1)   MOV_R_I : limm   r13d, 0xe7
Instruction Commited: (0)29823 PCState: (0x4132b8=>0x4132ba).(0=>1)   PUSH_R : stis   r12, SS:[rsp + 0xfffffffffffffff8]
Instruction Commited: (0)29824 PCState: (0x4132b8=>0x4132ba).(1=>2)   PUSH_R : subi   rsp, rsp, 0x8
Instruction Commited: (0)29825 PCState: (0x4132ba=>0x4132c0).(0=>1)   MOV_R_I : limm   r12d, 0x3c
Instruction Commited: (0)29826 PCState: (0x4132c0=>0x4132c1).(0=>1)   PUSH_R : stis   rbp, SS:[rsp + 0xfffffffffffffff8]
Instruction Commited: (0)29827 PCState: (0x4132c0=>0x4132c1).(1=>2)   PUSH_R : subi   rsp, rsp, 0x8
Instruction Commited: (0)29828 PCState: (0x4132c1=>0x4132c4).(0=>1)   MOVSXD_R_R : sexti   rbp, rdi, 0x1f
Instruction Commited: (0)29829 PCState: (0x4132c4=>0x4132c5).(0=>1)   PUSH_R : stis   rbx, SS:[rsp + 0xfffffffffffffff8]
Instruction Commited: (0)29830 PCState: (0x4132c4=>0x4132c5).(1=>2)   PUSH_R : subi   rsp, rsp, 0x8
Instruction Commited: (0)29831 PCState: (0x4132c5=>0x4132c9).(0=>1)   SUB_R_I : limm   t1, 0x8
Instruction Commited: (0)29832 PCState: (0x4132c5=>0x4132c9).(1=>2)   SUB_R_I : sub   rsp, rsp, t1
Instruction Commited: (0)29833 PCState: (0x4132c9=>0x4132cb).(0=>1)   JMP_I : rdip   t1, %ctrl153, 
Instruction Commited: (0)29834 PCState: (0x4132c9=>0x4132cb).(1=>2)   JMP_I : limm   t2, 0x19
Instruction Commited: (0)29835 PCState: (0x4132c9=>0x4132e4).(2=>3)   JMP_I : wrip   , t1, t2
Instruction Commited: (0)29848 PCState: (0x4132e4=>0x4132e7).(0=>1)   MOV_R_R : mov   rdi, rdi, rbp
Instruction Commited: (0)29849 PCState: (0x4132e7=>0x4132ea).(0=>1)   MOV_R_R : mov   eax, eax, r13d
Exiting @ tick 26218000 because exiting with last active thread context
