gem5 Simulator System.  http://gem5.org
gem5 is copyrighted software; use the --copyright option for details.

gem5 compiled Aug  3 2020 23:09:08
gem5 started Aug  3 2020 23:09:21
gem5 executing on dante, pid 6541
command line: /home/dante/gem5-changes/build/X86/gem5.opt /home/dante/gem5-changes/configs/example/se.py -c tests/test-progs/hello/bin/x86/linux/hello --cpu-type=O3_X86_skylake_1 --caches --l2cache --mem-type=DDR4_2400_16x4 --mem-channels=2 --enable-microop-cache --enable-micro-fusion

Global frequency set at 1000000000000 ticks per second
**** REAL SIMULATION ****
 PCState: (0x400190=>0x400193).(0=>1)   XOR_R_R : xor   rbp, rbp, rbp
 PCState: (0x400193=>0x400196).(0=>1)   MOV_R_R : mov   r9, r9, rdx
 PCState: (0x400196=>0x400197).(0=>1)   POP_R : ldis   t1, SS:[rsp]
 PCState: (0x400196=>0x400197).(1=>2)   POP_R : addi   rsp, rsp, 0x8
 PCState: (0x400196=>0x400197).(2=>3)   POP_R : mov   rsi, rsi, t1
 PCState: (0x400197=>0x40019a).(0=>1)   MOV_R_R : mov   rdx, rdx, rsp
 PCState: (0x40019a=>0x40019e).(0=>1)   AND_R_I : limm   t1, 0xfffffffffffffff0
 PCState: (0x40019a=>0x40019e).(1=>2)   AND_R_I : and   rsp, rsp, t1
 PCState: (0x40019e=>0x40019f).(0=>1)   PUSH_R : stis   rax, SS:[rsp + 0xfffffffffffffff8]
 PCState: (0x40019e=>0x40019f).(1=>2)   PUSH_R : subi   rsp, rsp, 0x8
 PCState: (0x40019f=>0x4001a0).(0=>1)   PUSH_R : stis   rsp, SS:[rsp + 0xfffffffffffffff8]
 PCState: (0x40019f=>0x4001a0).(1=>2)   PUSH_R : subi   rsp, rsp, 0x8
 PCState: (0x4001a0=>0x4001a7).(0=>1)   MOV_R_I : limm   r8, 0x40a060
 PCState: (0x4001a7=>0x4001ae).(0=>1)   MOV_R_I : limm   rcx, 0x409ff0
 PCState: (0x4001ae=>0x4001b5).(0=>1)   MOV_R_I : limm   rdi, 0x400274
 PCState: (0x4001b5=>0x4001ba).(0=>1)   CALL_NEAR_I : limm   t1, 0x9846
 PCState: (0x4001b5=>0x4001ba).(1=>2)   CALL_NEAR_I : rdip   t7, %ctrl153, 
 PCState: (0x4001b5=>0x4001ba).(2=>3)   CALL_NEAR_I : stis   t7, SS:[rsp + 0xfffffffffffffff8]
 PCState: (0x4001b5=>0x4001ba).(3=>4)   CALL_NEAR_I : subi   rsp, rsp, 0x8
 PCState: (0x4001b5=>0x409a00).(4=>5)   CALL_NEAR_I : wrip   , t7, t1
 PCState: (0x409a00=>0x409a02).(0=>1)   PUSH_R : stis   r15, SS:[rsp + 0xfffffffffffffff8]
 PCState: (0x409a00=>0x409a02).(1=>2)   PUSH_R : subi   rsp, rsp, 0x8
 PCState: (0x409a02=>0x409a05).(0=>1)   MOVSXD_R_R : sexti   rax, rsi, 0x1f
 PCState: (0x409a05=>0x409a08).(0=>1)   MOV_R_R : mov   r15, r15, r9
 PCState: (0x409a08=>0x409a0a).(0=>1)   PUSH_R : stis   r14, SS:[rsp + 0xfffffffffffffff8]
 PCState: (0x409a08=>0x409a0a).(1=>2)   PUSH_R : subi   rsp, rsp, 0x8
 PCState: (0x409a0a=>0x409a0d).(0=>1)   MOV_R_R : mov   r14, r14, rdx
 PCState: (0x409a0d=>0x409a0f).(0=>1)   PUSH_R : stis   r13, SS:[rsp + 0xfffffffffffffff8]
 PCState: (0x409a0d=>0x409a0f).(1=>2)   PUSH_R : subi   rsp, rsp, 0x8
 PCState: (0x409a0f=>0x409a12).(0=>1)   MOV_R_R : mov   r13d, r13d, esi
 PCState: (0x409a12=>0x409a14).(0=>1)   PUSH_R : stis   r12, SS:[rsp + 0xfffffffffffffff8]
 PCState: (0x409a12=>0x409a14).(1=>2)   PUSH_R : subi   rsp, rsp, 0x8
 PCState: (0x409a14=>0x409a15).(0=>1)   PUSH_R : stis   rbp, SS:[rsp + 0xfffffffffffffff8]
 PCState: (0x409a14=>0x409a15).(1=>2)   PUSH_R : subi   rsp, rsp, 0x8
 PCState: (0x409a15=>0x409a16).(0=>1)   PUSH_R : stis   rbx, SS:[rsp + 0xfffffffffffffff8]
 PCState: (0x409a15=>0x409a16).(1=>2)   PUSH_R : subi   rsp, rsp, 0x8
 PCState: (0x409a16=>0x409a1d).(0=>1)   SUB_R_I : limm   t1, 0x1f8
 PCState: (0x409a16=>0x409a1d).(1=>2)   SUB_R_I : sub   rsp, rsp, t1
 PCState: (0x409a1d=>0x409a22).(0=>1)   MOV_M_R : st   rdi, DS:[rsp + 0x18]
 PCState: (0x409a22=>0x409a27).(0=>1)   LEA_R_M : lea   rdi, DS:[8*rax + rdx + 0x8]
 PCState: (0x409a27=>0x409a2c).(0=>1)   MOV_R_I : limm   eax, 0
 PCState: (0x409a2c=>0x409a2e).(0=>1)   XOR_R_R : xor   edx, edx, edx
 PCState: (0x409a2e=>0x409a31).(0=>1)   TEST_R_R : and   t0, rax, rax
 PCState: (0x409a31=>0x409a36).(0=>1)   MOV_M_R : st   rcx, DS:[rsp + 0x10]
 PCState: (0x409a36=>0x409a3b).(0=>1)   MOV_M_R : st   r8, DS:[rsp + 0x8]
 PCState: (0x409a3b=>0x409a3d).(0=>1)   JZ_I : rdip   t1, %ctrl153, 
 PCState: (0x409a3b=>0x409a3d).(1=>2)   JZ_I : limm   t2, 0x12
 PCState: (0x409a3b=>0x409a4f).(2=>3)   JZ_I : wrip   , t1, t2
 PCState: (0x409a4f=>0x409a57).(0=>1)   MOV_R_M : ld   rax, DS:[rsp + 0x230]
 PCState: (0x409a57=>0x409a5d).(0=>1)   MOV_P_R : rdip   t7d, %ctrl153, 
 PCState: (0x409a57=>0x409a5d).(1=>2)   MOV_P_R : st   edx, DS:[t7 + 0x176d53]
 PCState: (0x409a5d=>0x409a64).(0=>1)   MOV_P_R : rdip   t7, %ctrl153, 
 PCState: (0x409a5d=>0x409a64).(1=>2)   MOV_P_R : st   rdi, DS:[t7 + 0x189394]
 PCState: (0x409a64=>0x409a6b).(0=>1)   MOV_P_R : rdip   t7, %ctrl153, 
 PCState: (0x409a64=>0x409a6b).(1=>2)   MOV_P_R : st   rax, DS:[t7 + 0x175f8d]
 PCState: (0x409a6b=>0x409a6e).(0=>1)   NOP   
 PCState: (0x409a6e=>0x409a70).(0=>1)   NOP   
 PCState: (0x409a70=>0x409a73).(0=>1)   MOV_R_M : ld   rax, DS:[rdi]
 PCState: (0x409a73=>0x409a77).(0=>1)   ADD_R_I : limm   t1, 0x8
 PCState: (0x409a73=>0x409a77).(1=>2)   ADD_R_I : add   rdi, rdi, t1
 PCState: (0x409a77=>0x409a7a).(0=>1)   TEST_R_R : and   t0, rax, rax
 PCState: (0x409a7a=>0x409a7c).(0=>1)   JNZ_I : rdip   t1, %ctrl153, 
 PCState: (0x409a7a=>0x409a7c).(1=>2)   JNZ_I : limm   t2, 0xfffffffffffffff4
 PCState: (0x409a7a=>0x409a7c).(2=>3)   JNZ_I : wrip   , t1, t2
 PCState: (0x409a7c=>0x409a81).(0=>1)   CALL_NEAR_I : limm   t1, 0xc07f
 PCState: (0x409a7c=>0x409a81).(1=>2)   CALL_NEAR_I : rdip   t7, %ctrl153, 
 PCState: (0x409a7c=>0x409a81).(2=>3)   CALL_NEAR_I : stis   t7, SS:[rsp + 0xfffffffffffffff8]
 PCState: (0x409a7c=>0x409a81).(3=>4)   CALL_NEAR_I : subi   rsp, rsp, 0x8
 PCState: (0x409a7c=>0x415b00).(4=>5)   CALL_NEAR_I : wrip   , t7, t1
 PCState: (0x415b00=>0x415b03).(0=>1)   MOV_R_M : ld   rax, DS:[rdi]
 PCState: (0x415b03=>0x415b05).(0=>1)   XOR_R_R : xor   edx, edx, edx
 PCState: (0x415b05=>0x415b07).(0=>1)   XOR_R_R : xor   ecx, ecx, ecx
 PCState: (0x415b07=>0x415b09).(0=>1)   XOR_R_R : xor   esi, esi, esi
 PCState: (0x415b09=>0x415b0c).(0=>1)   TEST_R_R : and   t0, rax, rax
 PCState: (0x415b0c=>0x415b0e).(0=>1)   JZ_I : rdip   t1, %ctrl153, 
 PCState: (0x415b0c=>0x415b0e).(1=>2)   JZ_I : limm   t2, 0x47
 PCState: (0x415b0c=>0x415b0e).(2=>3)   JZ_I : wrip   , t1, t2
 PCState: (0x415b0e=>0x415b10).(0=>1)   NOP   
 PCState: (0x415b10=>0x415b14).(0=>1)   SUB_R_I : limm   t1, 0x3
 PCState: (0x415b10=>0x415b14).(1=>2)   SUB_R_I : sub   rax, rax, t1
 PCState: (0x415b14=>0x415b18).(0=>1)   CMP_R_I : limm   t1, 0x14
 PCState: (0x415b14=>0x415b18).(1=>2)   CMP_R_I : sub   t0, rax, t1
 PCState: (0x415b18=>0x415b1a).(0=>1)   JNBE_I : rdip   t1, %ctrl153, 
 PCState: (0x415b18=>0x415b1a).(1=>2)   JNBE_I : limm   t2, 0x26
 PCState: (0x415b18=>0x415b40).(2=>3)   JNBE_I : wrip   , t1, t2
 PCState: (0x415b40=>0x415b44).(0=>1)   ADD_R_I : limm   t1, 0x10
 PCState: (0x415b40=>0x415b44).(1=>2)   ADD_R_I : add   rdi, rdi, t1
 PCState: (0x415b44=>0x415b47).(0=>1)   MOV_R_M : ld   rax, DS:[rdi]
 PCState: (0x415b47=>0x415b4a).(0=>1)   TEST_R_R : and   t0, rax, rax
 PCState: (0x415b4a=>0x415b4c).(0=>1)   JNZ_I : rdip   t1, %ctrl153, 
 PCState: (0x415b4a=>0x415b4c).(1=>2)   JNZ_I : limm   t2, 0xffffffffffffffc4
 PCState: (0x415b4a=>0x415b10).(2=>3)   JNZ_I : wrip   , t1, t2
 PCState: (0x415b10=>0x415b14).(0=>1)   SUB_R_I : limm   t1, 0x3
 PCState: (0x415b10=>0x415b14).(1=>2)   SUB_R_I : sub   rax, rax, t1
 PCState: (0x415b14=>0x415b18).(0=>1)   CMP_R_I : limm   t1, 0x14
 PCState: (0x415b14=>0x415b18).(1=>2)   CMP_R_I : sub   t0, rax, t1
 PCState: (0x415b18=>0x415b1a).(0=>1)   JNBE_I : rdip   t1, %ctrl153, 
 PCState: (0x415b18=>0x415b1a).(1=>2)   JNBE_I : limm   t2, 0x26
 PCState: (0x415b18=>0x415b1a).(2=>3)   JNBE_I : wrip   , t1, t2
 PCState: (0x415b1a=>0x415b21).(0=>1)   JMP_M : ld   t1, DS:[8*rax + 0x45eb80]
 PCState: (0x415b1a=>0x415b6f).(1=>2)   JMP_M : wripi   , t1, 0
 PCState: (0x415b6f=>0x415b73).(0=>1)   MOV_R_M : ld   rax, DS:[rdi + 0x8]
 PCState: (0x415b73=>0x415b77).(0=>1)   ADD_R_I : limm   t1, 0x10
 PCState: (0x415b73=>0x415b77).(1=>2)   ADD_R_I : add   rdi, rdi, t1
 PCState: (0x415b77=>0x415b7e).(0=>1)   MOV_P_R : rdip   t7, %ctrl153, 
 PCState: (0x415b77=>0x415b7e).(1=>2)   MOV_P_R : st   rax, DS:[t7 + 0x17d2f2]
 PCState: (0x415b7e=>0x415b81).(0=>1)   MOV_R_M : ld   rax, DS:[rdi]
 PCState: (0x415b81=>0x415b84).(0=>1)   TEST_R_R : and   t0, rax, rax
 PCState: (0x415b84=>0x415b86).(0=>1)   JNZ_I : rdip   t1, %ctrl153, 
 PCState: (0x415b84=>0x415b86).(1=>2)   JNZ_I : limm   t2, 0xffffffffffffff8a
 PCState: (0x415b84=>0x415b10).(2=>3)   JNZ_I : wrip   , t1, t2
 PCState: (0x415b10=>0x415b14).(0=>1)   SUB_R_I : limm   t1, 0x3
 PCState: (0x415b10=>0x415b14).(1=>2)   SUB_R_I : sub   rax, rax, t1
 PCState: (0x415b14=>0x415b18).(0=>1)   CMP_R_I : limm   t1, 0x14
 PCState: (0x415b14=>0x415b18).(1=>2)   CMP_R_I : sub   t0, rax, t1
 PCState: (0x415b18=>0x415b1a).(0=>1)   JNBE_I : rdip   t1, %ctrl153, 
 PCState: (0x415b18=>0x415b1a).(1=>2)   JNBE_I : limm   t2, 0x26
 PCState: (0x415b18=>0x415b1a).(2=>3)   JNBE_I : wrip   , t1, t2
 PCState: (0x415b1a=>0x415b21).(0=>1)   JMP_M : ld   t1, DS:[8*rax + 0x45eb80]
 PCState: (0x415b1a=>0x415bee).(1=>2)   JMP_M : wripi   , t1, 0
 PCState: (0x415bee=>0x415bf2).(0=>1)   MOV_R_M : ld   rax, DS:[rdi + 0x8]
 PCState: (0x415bf2=>0x415bf6).(0=>1)   ADD_R_I : limm   t1, 0x10
 PCState: (0x415bf2=>0x415bf6).(1=>2)   ADD_R_I : add   rdi, rdi, t1
 PCState: (0x415bf6=>0x415bfd).(0=>1)   MOV_P_R : rdip   t7, %ctrl153, 
 PCState: (0x415bf6=>0x415bfd).(1=>2)   MOV_P_R : st   rax, DS:[t7 + 0x17d943]
 PCState: (0x415bfd=>0x415c00).(0=>1)   MOV_R_M : ld   rax, DS:[rdi]
 PCState: (0x415c00=>0x415c03).(0=>1)   TEST_R_R : and   t0, rax, rax
 PCState: (0x415c03=>0x415c09).(0=>1)   JNZ_I : rdip   t1, %ctrl153, 
 PCState: (0x415c03=>0x415c09).(1=>2)   JNZ_I : limm   t2, 0xffffffffffffff07
 PCState: (0x415c03=>0x415b10).(2=>3)   JNZ_I : wrip   , t1, t2
 PCState: (0x415b10=>0x415b14).(0=>1)   SUB_R_I : limm   t1, 0x3
 PCState: (0x415b10=>0x415b14).(1=>2)   SUB_R_I : sub   rax, rax, t1
 PCState: (0x415b14=>0x415b18).(0=>1)   CMP_R_I : limm   t1, 0x14
 PCState: (0x415b14=>0x415b18).(1=>2)   CMP_R_I : sub   t0, rax, t1
 PCState: (0x415b18=>0x415b1a).(0=>1)   JNBE_I : rdip   t1, %ctrl153, 
 PCState: (0x415b18=>0x415b1a).(1=>2)   JNBE_I : limm   t2, 0x26
 PCState: (0x415b18=>0x415b1a).(2=>3)   JNBE_I : wrip   , t1, t2
 PCState: (0x415b1a=>0x415b21).(0=>1)   JMP_M : ld   t1, DS:[8*rax + 0x45eb80]
 PCState: (0x415b1a=>0x415b57).(1=>2)   JMP_M : wripi   , t1, 0
 PCState: (0x415b57=>0x415b5b).(0=>1)   MOV_R_M : ld   rax, DS:[rdi + 0x8]
 PCState: (0x415b5b=>0x415b5f).(0=>1)   ADD_R_I : limm   t1, 0x10
 PCState: (0x415b5b=>0x415b5f).(1=>2)   ADD_R_I : add   rdi, rdi, t1
 PCState: (0x415b5f=>0x415b65).(0=>1)   MOV_P_R : rdip   t7d, %ctrl153, 
 PCState: (0x415b5f=>0x415b65).(1=>2)   MOV_P_R : st   eax, DS:[t7 + 0x17d98b]
 PCState: (0x415b65=>0x415b68).(0=>1)   MOV_R_M : ld   rax, DS:[rdi]
 PCState: (0x415b68=>0x415b6b).(0=>1)   TEST_R_R : and   t0, rax, rax
 PCState: (0x415b6b=>0x415b6d).(0=>1)   JNZ_I : rdip   t1, %ctrl153, 
 PCState: (0x415b6b=>0x415b6d).(1=>2)   JNZ_I : limm   t2, 0xffffffffffffffa3
 PCState: (0x415b6b=>0x415b10).(2=>3)   JNZ_I : wrip   , t1, t2
 PCState: (0x415b10=>0x415b14).(0=>1)   SUB_R_I : limm   t1, 0x3
 PCState: (0x415b10=>0x415b14).(1=>2)   SUB_R_I : sub   rax, rax, t1
 PCState: (0x415b14=>0x415b18).(0=>1)   CMP_R_I : limm   t1, 0x14
 PCState: (0x415b14=>0x415b18).(1=>2)   CMP_R_I : sub   t0, rax, t1
 PCState: (0x415b18=>0x415b1a).(0=>1)   JNBE_I : rdip   t1, %ctrl153, 
 PCState: (0x415b18=>0x415b1a).(1=>2)   JNBE_I : limm   t2, 0x26
 PCState: (0x415b18=>0x415b1a).(2=>3)   JNBE_I : wrip   , t1, t2
 PCState: (0x415b1a=>0x415b21).(0=>1)   JMP_M : ld   t1, DS:[8*rax + 0x45eb80]
 PCState: (0x415b1a=>0x415c0e).(1=>2)   JMP_M : wripi   , t1, 0
 PCState: (0x415c0e=>0x415c12).(0=>1)   MOV_R_M : ld   rax, DS:[rdi + 0x8]
 PCState: (0x415c12=>0x415c16).(0=>1)   ADD_R_I : limm   t1, 0x10
 PCState: (0x415c12=>0x415c16).(1=>2)   ADD_R_I : add   rdi, rdi, t1
 PCState: (0x415c16=>0x415c1d).(0=>1)   MOV_P_R : rdip   t7, %ctrl153, 
 PCState: (0x415c16=>0x415c1d).(1=>2)   MOV_P_R : st   rax, DS:[t7 + 0x17d8c3]
 PCState: (0x415c1d=>0x415c20).(0=>1)   MOV_R_M : ld   rax, DS:[rdi]
 PCState: (0x415c20=>0x415c23).(0=>1)   TEST_R_R : and   t0, rax, rax
 PCState: (0x415c23=>0x415c29).(0=>1)   JNZ_I : rdip   t1, %ctrl153, 
 PCState: (0x415c23=>0x415c29).(1=>2)   JNZ_I : limm   t2, 0xfffffffffffffee7
 PCState: (0x415c23=>0x415b10).(2=>3)   JNZ_I : wrip   , t1, t2
 PCState: (0x415b10=>0x415b14).(0=>1)   SUB_R_I : limm   t1, 0x3
 PCState: (0x415b10=>0x415b14).(1=>2)   SUB_R_I : sub   rax, rax, t1
 PCState: (0x415b14=>0x415b18).(0=>1)   CMP_R_I : limm   t1, 0x14
 PCState: (0x415b14=>0x415b18).(1=>2)   CMP_R_I : sub   t0, rax, t1
 PCState: (0x415b18=>0x415b1a).(0=>1)   JNBE_I : rdip   t1, %ctrl153, 
 PCState: (0x415b18=>0x415b1a).(1=>2)   JNBE_I : limm   t2, 0x26
 PCState: (0x415b18=>0x415b1a).(2=>3)   JNBE_I : wrip   , t1, t2
 PCState: (0x415b1a=>0x415b21).(0=>1)   JMP_M : ld   t1, DS:[8*rax + 0x45eb80]
 PCState: (0x415b1a=>0x415b40).(1=>2)   JMP_M : wripi   , t1, 0
 PCState: (0x415b40=>0x415b44).(0=>1)   ADD_R_I : limm   t1, 0x10
 PCState: (0x415b40=>0x415b44).(1=>2)   ADD_R_I : add   rdi, rdi, t1
 PCState: (0x415b44=>0x415b47).(0=>1)   MOV_R_M : ld   rax, DS:[rdi]
 PCState: (0x415b47=>0x415b4a).(0=>1)   TEST_R_R : and   t0, rax, rax
 PCState: (0x415b4a=>0x415b4c).(0=>1)   JNZ_I : rdip   t1, %ctrl153, 
 PCState: (0x415b4a=>0x415b4c).(1=>2)   JNZ_I : limm   t2, 0xffffffffffffffc4
 PCState: (0x415b4a=>0x415b10).(2=>3)   JNZ_I : wrip   , t1, t2
 PCState: (0x415b10=>0x415b14).(0=>1)   SUB_R_I : limm   t1, 0x3
 PCState: (0x415b10=>0x415b14).(1=>2)   SUB_R_I : sub   rax, rax, t1
 PCState: (0x415b14=>0x415b18).(0=>1)   CMP_R_I : limm   t1, 0x14
 PCState: (0x415b14=>0x415b18).(1=>2)   CMP_R_I : sub   t0, rax, t1
 PCState: (0x415b18=>0x415b1a).(0=>1)   JNBE_I : rdip   t1, %ctrl153, 
 PCState: (0x415b18=>0x415b1a).(1=>2)   JNBE_I : limm   t2, 0x26
 PCState: (0x415b18=>0x415b1a).(2=>3)   JNBE_I : wrip   , t1, t2
 PCState: (0x415b1a=>0x415b21).(0=>1)   JMP_M : ld   t1, DS:[8*rax + 0x45eb80]
 PCState: (0x415b1a=>0x415c2e).(1=>2)   JMP_M : wripi   , t1, 0
 PCState: (0x415c2e=>0x415c32).(0=>1)   MOV_R_M : ld   rax, DS:[rdi + 0x8]
 PCState: (0x415c32=>0x415c36).(0=>1)   ADD_R_I : limm   t1, 0x10
 PCState: (0x415c32=>0x415c36).(1=>2)   ADD_R_I : add   rdi, rdi, t1
 PCState: (0x415c36=>0x415c3d).(0=>1)   MOV_P_R : rdip   t7, %ctrl153, 
 PCState: (0x415c36=>0x415c3d).(1=>2)   MOV_P_R : st   rax, DS:[t7 + 0x17d8d3]
 PCState: (0x415c3d=>0x415c40).(0=>1)   MOV_R_M : ld   rax, DS:[rdi]
 PCState: (0x415c40=>0x415c43).(0=>1)   TEST_R_R : and   t0, rax, rax
 PCState: (0x415c43=>0x415c49).(0=>1)   JNZ_I : rdip   t1, %ctrl153, 
 PCState: (0x415c43=>0x415c49).(1=>2)   JNZ_I : limm   t2, 0xfffffffffffffec7
 PCState: (0x415c43=>0x415b10).(2=>3)   JNZ_I : wrip   , t1, t2
 PCState: (0x415b10=>0x415b14).(0=>1)   SUB_R_I : limm   t1, 0x3
 PCState: (0x415b10=>0x415b14).(1=>2)   SUB_R_I : sub   rax, rax, t1
 PCState: (0x415b14=>0x415b18).(0=>1)   CMP_R_I : limm   t1, 0x14
 PCState: (0x415b14=>0x415b18).(1=>2)   CMP_R_I : sub   t0, rax, t1
 PCState: (0x415b18=>0x415b1a).(0=>1)   JNBE_I : rdip   t1, %ctrl153, 
 PCState: (0x415b18=>0x415b1a).(1=>2)   JNBE_I : limm   t2, 0x26
 PCState: (0x415b18=>0x415b1a).(2=>3)   JNBE_I : wrip   , t1, t2
 PCState: (0x415b1a=>0x415b21).(0=>1)   JMP_M : ld   t1, DS:[8*rax + 0x45eb80]
 PCState: (0x415b1a=>0x415b40).(1=>2)   JMP_M : wripi   , t1, 0
 PCState: (0x415b40=>0x415b44).(0=>1)   ADD_R_I : limm   t1, 0x10
 PCState: (0x415b40=>0x415b44).(1=>2)   ADD_R_I : add   rdi, rdi, t1
 PCState: (0x415b44=>0x415b47).(0=>1)   MOV_R_M : ld   rax, DS:[rdi]
 PCState: (0x415b47=>0x415b4a).(0=>1)   TEST_R_R : and   t0, rax, rax
 PCState: (0x415b4a=>0x415b4c).(0=>1)   JNZ_I : rdip   t1, %ctrl153, 
 PCState: (0x415b4a=>0x415b4c).(1=>2)   JNZ_I : limm   t2, 0xffffffffffffffc4
 PCState: (0x415b4a=>0x415b10).(2=>3)   JNZ_I : wrip   , t1, t2
 PCState: (0x415b10=>0x415b14).(0=>1)   SUB_R_I : limm   t1, 0x3
 PCState: (0x415b10=>0x415b14).(1=>2)   SUB_R_I : sub   rax, rax, t1
 PCState: (0x415b14=>0x415b18).(0=>1)   CMP_R_I : limm   t1, 0x14
 PCState: (0x415b14=>0x415b18).(1=>2)   CMP_R_I : sub   t0, rax, t1
 PCState: (0x415b18=>0x415b1a).(0=>1)   JNBE_I : rdip   t1, %ctrl153, 
 PCState: (0x415b18=>0x415b1a).(1=>2)   JNBE_I : limm   t2, 0x26
 PCState: (0x415b18=>0x415b1a).(2=>3)   JNBE_I : wrip   , t1, t2
 PCState: (0x415b1a=>0x415b21).(0=>1)   JMP_M : ld   t1, DS:[8*rax + 0x45eb80]
 PCState: (0x415b1a=>0x415b40).(1=>2)   JMP_M : wripi   , t1, 0
 PCState: (0x415b40=>0x415b44).(0=>1)   ADD_R_I : limm   t1, 0x10
 PCState: (0x415b40=>0x415b44).(1=>2)   ADD_R_I : add   rdi, rdi, t1
 PCState: (0x415b44=>0x415b47).(0=>1)   MOV_R_M : ld   rax, DS:[rdi]
 PCState: (0x415b47=>0x415b4a).(0=>1)   TEST_R_R : and   t0, rax, rax
 PCState: (0x415b4a=>0x415b4c).(0=>1)   JNZ_I : rdip   t1, %ctrl153, 
 PCState: (0x415b4a=>0x415b4c).(1=>2)   JNZ_I : limm   t2, 0xffffffffffffffc4
 PCState: (0x415b4a=>0x415b10).(2=>3)   JNZ_I : wrip   , t1, t2
 PCState: (0x415b10=>0x415b14).(0=>1)   SUB_R_I : limm   t1, 0x3
 PCState: (0x415b10=>0x415b14).(1=>2)   SUB_R_I : sub   rax, rax, t1
 PCState: (0x415b14=>0x415b18).(0=>1)   CMP_R_I : limm   t1, 0x14
 PCState: (0x415b14=>0x415b18).(1=>2)   CMP_R_I : sub   t0, rax, t1
 PCState: (0x415b18=>0x415b1a).(0=>1)   JNBE_I : rdip   t1, %ctrl153, 
 PCState: (0x415b18=>0x415b1a).(1=>2)   JNBE_I : limm   t2, 0x26
 PCState: (0x415b18=>0x415b1a).(2=>3)   JNBE_I : wrip   , t1, t2
 PCState: (0x415b1a=>0x415b21).(0=>1)   JMP_M : ld   t1, DS:[8*rax + 0x45eb80]
 PCState: (0x415b1a=>0x415b40).(1=>2)   JMP_M : wripi   , t1, 0
 PCState: (0x415b40=>0x415b44).(0=>1)   ADD_R_I : limm   t1, 0x10
 PCState: (0x415b40=>0x415b44).(1=>2)   ADD_R_I : add   rdi, rdi, t1
 PCState: (0x415b44=>0x415b47).(0=>1)   MOV_R_M : ld   rax, DS:[rdi]
 PCState: (0x415b47=>0x415b4a).(0=>1)   TEST_R_R : and   t0, rax, rax
 PCState: (0x415b4a=>0x415b4c).(0=>1)   JNZ_I : rdip   t1, %ctrl153, 
 PCState: (0x415b4a=>0x415b4c).(1=>2)   JNZ_I : limm   t2, 0xffffffffffffffc4
 PCState: (0x415b4a=>0x415b10).(2=>3)   JNZ_I : wrip   , t1, t2
 PCState: (0x415b10=>0x415b14).(0=>1)   SUB_R_I : limm   t1, 0x3
 PCState: (0x415b10=>0x415b14).(1=>2)   SUB_R_I : sub   rax, rax, t1
 PCState: (0x415b14=>0x415b18).(0=>1)   CMP_R_I : limm   t1, 0x14
 PCState: (0x415b14=>0x415b18).(1=>2)   CMP_R_I : sub   t0, rax, t1
 PCState: (0x415b18=>0x415b1a).(0=>1)   JNBE_I : rdip   t1, %ctrl153, 
 PCState: (0x415b18=>0x415b1a).(1=>2)   JNBE_I : limm   t2, 0x26
 PCState: (0x415b18=>0x415b1a).(2=>3)   JNBE_I : wrip   , t1, t2
 PCState: (0x415b1a=>0x415b21).(0=>1)   JMP_M : ld   t1, DS:[8*rax + 0x45eb80]
 PCState: (0x415b1a=>0x415bd3).(1=>2)   JMP_M : wripi   , t1, 0
 PCState: (0x415bd3=>0x415bd6).(0=>1)   XOR_R_M : ld   t1d, DS:[rdi + 0x8]
 PCState: (0x415bd3=>0x415bd6).(1=>2)   XOR_R_M : xor   ecx, ecx, t1d
 PCState: (0x415bd6=>0x415bda).(0=>1)   ADD_R_I : limm   t1, 0x10
 PCState: (0x415bd6=>0x415bda).(1=>2)   ADD_R_I : add   rdi, rdi, t1
 PCState: (0x415bda=>0x415bdd).(0=>1)   OR_R_I : limm   t1d, 0x1
 PCState: (0x415bda=>0x415bdd).(1=>2)   OR_R_I : or   edx, edx, t1d
 PCState: (0x415bdd=>0x415be0).(0=>1)   MOV_R_M : ld   rax, DS:[rdi]
 PCState: (0x415be0=>0x415be3).(0=>1)   TEST_R_R : and   t0, rax, rax
 PCState: (0x415be3=>0x415be9).(0=>1)   JNZ_I : rdip   t1, %ctrl153, 
 PCState: (0x415be3=>0x415be9).(1=>2)   JNZ_I : limm   t2, 0xffffffffffffff27
 PCState: (0x415be3=>0x415b10).(2=>3)   JNZ_I : wrip   , t1, t2
 PCState: (0x415b10=>0x415b14).(0=>1)   SUB_R_I : limm   t1, 0x3
 PCState: (0x415b10=>0x415b14).(1=>2)   SUB_R_I : sub   rax, rax, t1
 PCState: (0x415b14=>0x415b18).(0=>1)   CMP_R_I : limm   t1, 0x14
 PCState: (0x415b14=>0x415b18).(1=>2)   CMP_R_I : sub   t0, rax, t1
 PCState: (0x415b18=>0x415b1a).(0=>1)   JNBE_I : rdip   t1, %ctrl153, 
 PCState: (0x415b18=>0x415b1a).(1=>2)   JNBE_I : limm   t2, 0x26
 PCState: (0x415b18=>0x415b1a).(2=>3)   JNBE_I : wrip   , t1, t2
 PCState: (0x415b1a=>0x415b21).(0=>1)   JMP_M : ld   t1, DS:[8*rax + 0x45eb80]
 PCState: (0x415b1a=>0x415bb8).(1=>2)   JMP_M : wripi   , t1, 0
 PCState: (0x415bb8=>0x415bbb).(0=>1)   XOR_R_M : ld   t1d, DS:[rdi + 0x8]
 PCState: (0x415bb8=>0x415bbb).(1=>2)   XOR_R_M : xor   ecx, ecx, t1d
 PCState: (0x415bbb=>0x415bbf).(0=>1)   ADD_R_I : limm   t1, 0x10
 PCState: (0x415bbb=>0x415bbf).(1=>2)   ADD_R_I : add   rdi, rdi, t1
 PCState: (0x415bbf=>0x415bc2).(0=>1)   OR_R_I : limm   t1d, 0x2
 PCState: (0x415bbf=>0x415bc2).(1=>2)   OR_R_I : or   edx, edx, t1d
 PCState: (0x415bc2=>0x415bc5).(0=>1)   MOV_R_M : ld   rax, DS:[rdi]
 PCState: (0x415bc5=>0x415bc8).(0=>1)   TEST_R_R : and   t0, rax, rax
 PCState: (0x415bc8=>0x415bce).(0=>1)   JNZ_I : rdip   t1, %ctrl153, 
 PCState: (0x415bc8=>0x415bce).(1=>2)   JNZ_I : limm   t2, 0xffffffffffffff42
 PCState: (0x415bc8=>0x415b10).(2=>3)   JNZ_I : wrip   , t1, t2
 PCState: (0x415b10=>0x415b14).(0=>1)   SUB_R_I : limm   t1, 0x3
 PCState: (0x415b10=>0x415b14).(1=>2)   SUB_R_I : sub   rax, rax, t1
 PCState: (0x415b14=>0x415b18).(0=>1)   CMP_R_I : limm   t1, 0x14
 PCState: (0x415b14=>0x415b18).(1=>2)   CMP_R_I : sub   t0, rax, t1
 PCState: (0x415b18=>0x415b1a).(0=>1)   JNBE_I : rdip   t1, %ctrl153, 
 PCState: (0x415b18=>0x415b1a).(1=>2)   JNBE_I : limm   t2, 0x26
 PCState: (0x415b18=>0x415b1a).(2=>3)   JNBE_I : wrip   , t1, t2
 PCState: (0x415b1a=>0x415b21).(0=>1)   JMP_M : ld   t1, DS:[8*rax + 0x45eb80]
 PCState: (0x415b1a=>0x415ba0).(1=>2)   JMP_M : wripi   , t1, 0
 PCState: (0x415ba0=>0x415ba3).(0=>1)   XOR_R_M : ld   t1d, DS:[rdi + 0x8]
 PCState: (0x415ba0=>0x415ba3).(1=>2)   XOR_R_M : xor   esi, esi, t1d
 PCState: (0x415ba3=>0x415ba7).(0=>1)   ADD_R_I : limm   t1, 0x10
 PCState: (0x415ba3=>0x415ba7).(1=>2)   ADD_R_I : add   rdi, rdi, t1
 PCState: (0x415ba7=>0x415baa).(0=>1)   OR_R_I : limm   t1d, 0x4
 PCState: (0x415ba7=>0x415baa).(1=>2)   OR_R_I : or   edx, edx, t1d
 PCState: (0x415baa=>0x415bad).(0=>1)   MOV_R_M : ld   rax, DS:[rdi]
 PCState: (0x415bad=>0x415bb0).(0=>1)   TEST_R_R : and   t0, rax, rax
 PCState: (0x415bb0=>0x415bb6).(0=>1)   JNZ_I : rdip   t1, %ctrl153, 
 PCState: (0x415bb0=>0x415bb6).(1=>2)   JNZ_I : limm   t2, 0xffffffffffffff5a
 PCState: (0x415bb0=>0x415b10).(2=>3)   JNZ_I : wrip   , t1, t2
 PCState: (0x415b10=>0x415b14).(0=>1)   SUB_R_I : limm   t1, 0x3
 PCState: (0x415b10=>0x415b14).(1=>2)   SUB_R_I : sub   rax, rax, t1
 PCState: (0x415b14=>0x415b18).(0=>1)   CMP_R_I : limm   t1, 0x14
 PCState: (0x415b14=>0x415b18).(1=>2)   CMP_R_I : sub   t0, rax, t1
 PCState: (0x415b18=>0x415b1a).(0=>1)   JNBE_I : rdip   t1, %ctrl153, 
 PCState: (0x415b18=>0x415b1a).(1=>2)   JNBE_I : limm   t2, 0x26
 PCState: (0x415b18=>0x415b1a).(2=>3)   JNBE_I : wrip   , t1, t2
 PCState: (0x415b1a=>0x415b21).(0=>1)   JMP_M : ld   t1, DS:[8*rax + 0x45eb80]
 PCState: (0x415b1a=>0x415b88).(1=>2)   JMP_M : wripi   , t1, 0
 PCState: (0x415b88=>0x415b8b).(0=>1)   XOR_R_M : ld   t1d, DS:[rdi + 0x8]
 PCState: (0x415b88=>0x415b8b).(1=>2)   XOR_R_M : xor   esi, esi, t1d
 PCState: (0x415b8b=>0x415b8f).(0=>1)   ADD_R_I : limm   t1, 0x10
 PCState: (0x415b8b=>0x415b8f).(1=>2)   ADD_R_I : add   rdi, rdi, t1
 PCState: (0x415b8f=>0x415b92).(0=>1)   OR_R_I : limm   t1d, 0x8
 PCState: (0x415b8f=>0x415b92).(1=>2)   OR_R_I : or   edx, edx, t1d
 PCState: (0x415b92=>0x415b95).(0=>1)   MOV_R_M : ld   rax, DS:[rdi]
 PCState: (0x415b95=>0x415b98).(0=>1)   TEST_R_R : and   t0, rax, rax
 PCState: (0x415b98=>0x415b9e).(0=>1)   JNZ_I : rdip   t1, %ctrl153, 
 PCState: (0x415b98=>0x415b9e).(1=>2)   JNZ_I : limm   t2, 0xffffffffffffff72
 PCState: (0x415b98=>0x415b10).(2=>3)   JNZ_I : wrip   , t1, t2
 PCState: (0x415b10=>0x415b14).(0=>1)   SUB_R_I : limm   t1, 0x3
 PCState: (0x415b10=>0x415b14).(1=>2)   SUB_R_I : sub   rax, rax, t1
 PCState: (0x415b14=>0x415b18).(0=>1)   CMP_R_I : limm   t1, 0x14
 PCState: (0x415b14=>0x415b18).(1=>2)   CMP_R_I : sub   t0, rax, t1
 PCState: (0x415b18=>0x415b1a).(0=>1)   JNBE_I : rdip   t1, %ctrl153, 
 PCState: (0x415b18=>0x415b1a).(1=>2)   JNBE_I : limm   t2, 0x26
 PCState: (0x415b18=>0x415b1a).(2=>3)   JNBE_I : wrip   , t1, t2
 PCState: (0x415b1a=>0x415b21).(0=>1)   JMP_M : ld   t1, DS:[8*rax + 0x45eb80]
 PCState: (0x415b1a=>0x415b21).(1=>2)   JMP_M : wripi   , t1, 0
 PCState: (0x415b21=>0x415b25).(0=>1)   MOV_R_M : ld   rax, DS:[rdi + 0x8]
 PCState: (0x415b25=>0x415b2a).(0=>1)   MOV_R_I : limm   edx, 0xffffffffffffffff
 PCState: (0x415b2a=>0x415b34).(0=>1)   MOV_P_I : rdip   t7d, %ctrl153, 
 PCState: (0x415b2a=>0x415b34).(1=>2)   MOV_P_I : limm   t1d, 0x1
 PCState: (0x415b2a=>0x415b34).(2=>3)   MOV_P_I : st   t1d, DS:[t7 + 0x17da5c]
 PCState: (0x415b34=>0x415b3a).(0=>1)   MOV_P_R : rdip   t7d, %ctrl153, 
 PCState: (0x415b34=>0x415b3a).(1=>2)   MOV_P_R : st   eax, DS:[t7 + 0x169ec6]
 PCState: (0x415b3a=>0x415b3d).(0=>1)   NOP   
 PCState: (0x415b3d=>0x415b40).(0=>1)   NOP   
 PCState: (0x415b40=>0x415b44).(0=>1)   ADD_R_I : limm   t1, 0x10
 PCState: (0x415b40=>0x415b44).(1=>2)   ADD_R_I : add   rdi, rdi, t1
 PCState: (0x415b44=>0x415b47).(0=>1)   MOV_R_M : ld   rax, DS:[rdi]
 PCState: (0x415b47=>0x415b4a).(0=>1)   TEST_R_R : and   t0, rax, rax
 PCState: (0x415b4a=>0x415b4c).(0=>1)   JNZ_I : rdip   t1, %ctrl153, 
 PCState: (0x415b4a=>0x415b4c).(1=>2)   JNZ_I : limm   t2, 0xffffffffffffffc4
 PCState: (0x415b4a=>0x415b10).(2=>3)   JNZ_I : wrip   , t1, t2
 PCState: (0x415b10=>0x415b14).(0=>1)   SUB_R_I : limm   t1, 0x3
 PCState: (0x415b10=>0x415b14).(1=>2)   SUB_R_I : sub   rax, rax, t1
 PCState: (0x415b14=>0x415b18).(0=>1)   CMP_R_I : limm   t1, 0x14
 PCState: (0x415b14=>0x415b18).(1=>2)   CMP_R_I : sub   t0, rax, t1
 PCState: (0x415b18=>0x415b1a).(0=>1)   JNBE_I : rdip   t1, %ctrl153, 
 PCState: (0x415b18=>0x415b1a).(1=>2)   JNBE_I : limm   t2, 0x26
 PCState: (0x415b18=>0x415b40).(2=>3)   JNBE_I : wrip   , t1, t2
 PCState: (0x415b40=>0x415b44).(0=>1)   ADD_R_I : limm   t1, 0x10
 PCState: (0x415b40=>0x415b44).(1=>2)   ADD_R_I : add   rdi, rdi, t1
 PCState: (0x415b44=>0x415b47).(0=>1)   MOV_R_M : ld   rax, DS:[rdi]
 PCState: (0x415b47=>0x415b4a).(0=>1)   TEST_R_R : and   t0, rax, rax
 PCState: (0x415b4a=>0x415b4c).(0=>1)   JNZ_I : rdip   t1, %ctrl153, 
 PCState: (0x415b4a=>0x415b4c).(1=>2)   JNZ_I : limm   t2, 0xffffffffffffffc4
 PCState: (0x415b4a=>0x415b10).(2=>3)   JNZ_I : wrip   , t1, t2
 PCState: (0x415b10=>0x415b14).(0=>1)   SUB_R_I : limm   t1, 0x3
 PCState: (0x415b10=>0x415b14).(1=>2)   SUB_R_I : sub   rax, rax, t1
 PCState: (0x415b14=>0x415b18).(0=>1)   CMP_R_I : limm   t1, 0x14
 PCState: (0x415b14=>0x415b18).(1=>2)   CMP_R_I : sub   t0, rax, t1
 PCState: (0x415b18=>0x415b1a).(0=>1)   JNBE_I : rdip   t1, %ctrl153, 
 PCState: (0x415b18=>0x415b1a).(1=>2)   JNBE_I : limm   t2, 0x26
 PCState: (0x415b18=>0x415b40).(2=>3)   JNBE_I : wrip   , t1, t2
 PCState: (0x415b40=>0x415b44).(0=>1)   ADD_R_I : limm   t1, 0x10
 PCState: (0x415b40=>0x415b44).(1=>2)   ADD_R_I : add   rdi, rdi, t1
 PCState: (0x415b44=>0x415b47).(0=>1)   MOV_R_M : ld   rax, DS:[rdi]
 PCState: (0x415b47=>0x415b4a).(0=>1)   TEST_R_R : and   t0, rax, rax
 PCState: (0x415b4a=>0x415b4c).(0=>1)   JNZ_I : rdip   t1, %ctrl153, 
 PCState: (0x415b4a=>0x415b4c).(1=>2)   JNZ_I : limm   t2, 0xffffffffffffffc4
 PCState: (0x415b4a=>0x415b10).(2=>3)   JNZ_I : wrip   , t1, t2
 PCState: (0x415b10=>0x415b14).(0=>1)   SUB_R_I : limm   t1, 0x3
 PCState: (0x415b10=>0x415b14).(1=>2)   SUB_R_I : sub   rax, rax, t1
 PCState: (0x415b14=>0x415b18).(0=>1)   CMP_R_I : limm   t1, 0x14
 PCState: (0x415b14=>0x415b18).(1=>2)   CMP_R_I : sub   t0, rax, t1
 PCState: (0x415b18=>0x415b1a).(0=>1)   JNBE_I : rdip   t1, %ctrl153, 
 PCState: (0x415b18=>0x415b1a).(1=>2)   JNBE_I : limm   t2, 0x26
 PCState: (0x415b18=>0x415b1a).(2=>3)   JNBE_I : wrip   , t1, t2
 PCState: (0x415b1a=>0x415b21).(0=>1)   JMP_M : ld   t1, DS:[8*rax + 0x45eb80]
 PCState: (0x415b1a=>0x415b40).(1=>2)   JMP_M : wripi   , t1, 0
 PCState: (0x415b40=>0x415b44).(0=>1)   ADD_R_I : limm   t1, 0x10
 PCState: (0x415b40=>0x415b44).(1=>2)   ADD_R_I : add   rdi, rdi, t1
 PCState: (0x415b44=>0x415b47).(0=>1)   MOV_R_M : ld   rax, DS:[rdi]
 PCState: (0x415b47=>0x415b4a).(0=>1)   TEST_R_R : and   t0, rax, rax
 PCState: (0x415b4a=>0x415b4c).(0=>1)   JNZ_I : rdip   t1, %ctrl153, 
 PCState: (0x415b4a=>0x415b4c).(1=>2)   JNZ_I : limm   t2, 0xffffffffffffffc4
 PCState: (0x415b4a=>0x415b4c).(2=>3)   JNZ_I : wrip   , t1, t2
 PCState: (0x415b4c=>0x415b4f).(0=>1)   CMP_R_I : limm   t1d, 0xf
 PCState: (0x415b4c=>0x415b4f).(1=>2)   CMP_R_I : sub   t0d, edx, t1d
 PCState: (0x415b4f=>0x415b55).(0=>1)   JZ_I : rdip   t1, %ctrl153, 
 PCState: (0x415b4f=>0x415b55).(1=>2)   JZ_I : limm   t2, 0xf9
 PCState: (0x415b4f=>0x415b55).(2=>3)   JZ_I : wrip   , t1, t2
 PCState: (0x415b55=>0x415b57).(0=>1)   RET_NEAR : ld   t1, SS:[rsp]
 PCState: (0x415b55=>0x415b57).(1=>2)   RET_NEAR : addi   rsp, rsp, 0x8
 PCState: (0x415b55=>0x409a81).(2=>3)   RET_NEAR : wripi   , t1, 0
 PCState: (0x409a81=>0x409a88).(0=>1)   MOV_R_P : rdip   t7d, %ctrl153, 
 PCState: (0x409a81=>0x409a88).(1=>2)   MOV_R_P : ld   r10d, DS:[t7 + 0x176d28]
 PCState: (0x409a88=>0x409a8b).(0=>1)   TEST_R_R : and   t0d, r10d, r10d
 PCState: (0x409a8b=>0x409a91).(0=>1)   JNZ_I : rdip   t1, %ctrl153, 
 PCState: (0x409a8b=>0x409a91).(1=>2)   JNZ_I : limm   t2, 0xa4
 PCState: (0x409a8b=>0x409a91).(2=>3)   JNZ_I : wrip   , t1, t2
 PCState: (0x409a91=>0x409a96).(0=>1)   LEA_R_M : lea   rbx, DS:[rsp + 0x20]
 PCState: (0x409a96=>0x409a9e).(0=>1)   LEA_R_M : lea   r12, DS:[rsp + 0x1b0]
 PCState: (0x409a9e=>0x409aa1).(0=>1)   MOV_R_R : mov   rdi, rdi, rbx
 PCState: (0x409aa1=>0x409aa6).(0=>1)   CALL_NEAR_I : limm   t1, 0x97ea
 PCState: (0x409aa1=>0x409aa6).(1=>2)   CALL_NEAR_I : rdip   t7, %ctrl153, 
 PCState: (0x409aa1=>0x409aa6).(2=>3)   CALL_NEAR_I : stis   t7, SS:[rsp + 0xfffffffffffffff8]
 PCState: (0x409aa1=>0x409aa6).(3=>4)   CALL_NEAR_I : subi   rsp, rsp, 0x8
 PCState: (0x409aa1=>0x413290).(4=>5)   CALL_NEAR_I : wrip   , t7, t1
 PCState: (0x413290=>0x413297).(0=>1)   MOV_R_I : limm   rax, 0x3f
 PCState: (0x413297=>0x413299).(0=>1)   syscall    eax
 PCState: (0x413299=>0x41329f).(0=>1)   CMP_R_I : limm   t1, 0xfffffffffffff001
 PCState: (0x413299=>0x41329f).(1=>2)   CMP_R_I : sub   t0, rax, t1
 PCState: (0x41329f=>0x4132a5).(0=>1)   JNB_I : rdip   t1, %ctrl153, 
 PCState: (0x41329f=>0x4132a5).(1=>2)   JNB_I : limm   t2, 0x2feb
 PCState: (0x41329f=>0x4132a5).(2=>3)   JNB_I : wrip   , t1, t2
 PCState: (0x4132a5=>0x4132a6).(0=>1)   RET_NEAR : ld   t1, SS:[rsp]
 PCState: (0x4132a5=>0x4132a6).(1=>2)   RET_NEAR : addi   rsp, rsp, 0x8
 PCState: (0x4132a5=>0x409aa6).(2=>3)   RET_NEAR : wripi   , t1, 0
 PCState: (0x409aa6=>0x409aa8).(0=>1)   TEST_R_R : and   t0d, eax, eax
 PCState: (0x409aa8=>0x409aae).(0=>1)   JNZ_I : rdip   t1, %ctrl153, 
 PCState: (0x409aa8=>0x409aae).(1=>2)   JNZ_I : limm   t2, 0xff
 PCState: (0x409aa8=>0x409aae).(2=>3)   JNZ_I : wrip   , t1, t2
 PCState: (0x409aae=>0x409ab5).(0=>1)   LEA_R_M : lea   r12, DS:[rbx + 0x82]
 PCState: (0x409ab5=>0x409aba).(0=>1)   MOVZX_B_R_M : ld   t1b, DS:[r12]
 PCState: (0x409ab5=>0x409aba).(1=>2)   MOVZX_B_R_M : zexti   edx, t1d, 0x7
 PCState: (0x409aba=>0x409abc).(0=>1)   XOR_R_R : xor   edi, edi, edi
 PCState: (0x409abc=>0x409abf).(0=>1)   XOR_R_R : xor   r8d, r8d, r8d
 PCState: (0x409abf=>0x409ac2).(0=>1)   MOV_R_R : mov   rsi, rsi, r12
 PCState: (0x409ac2=>0x409ac5).(0=>1)   LEA_R_M : lea   eax, DS:[rdx + 0xffffffffffffffd0]
 PCState: (0x409ac5=>0x409ac7).(0=>1)   CMP_R_I : limm   t1b, 0x9
 PCState: (0x409ac5=>0x409ac7).(1=>2)   CMP_R_I : sub   t0b, al, t1b
 PCState: (0x409ac7=>0x409ac9).(0=>1)   JNBE_I : rdip   t1, %ctrl153, 
 PCState: (0x409ac7=>0x409ac9).(1=>2)   JNBE_I : limm   t2, 0x4d
 PCState: (0x409ac7=>0x409ac9).(2=>3)   JNBE_I : wrip   , t1, t2
 PCState: (0x409ac9=>0x409acd).(0=>1)   NOP   
 PCState: (0x409acd=>0x409ad0).(0=>1)   NOP   
 PCState: (0x409ad0=>0x409ad3).(0=>1)   MOVSX_B_R_R : mov   t1b, t1b, dl
 PCState: (0x409ad0=>0x409ad3).(1=>2)   MOVSX_B_R_R : sexti   eax, t1d, 0x7
 PCState: (0x409ad3=>0x409ad6).(0=>1)   LEA_R_M : lea   ecx, DS:[rax + 0xffffffffffffffd0]
 PCState: (0x409ad6=>0x409ad8).(0=>1)   JMP_I : rdip   t1, %ctrl153, 
 PCState: (0x409ad6=>0x409ad8).(1=>2)   JMP_I : limm   t2, 0x11
 PCState: (0x409ad6=>0x409ae9).(2=>3)   JMP_I : wrip   , t1, t2
 PCState: (0x409ae9=>0x409aec).(0=>1)   INC_R : addi   rsi, rsi, 0x1
 PCState: (0x409aec=>0x409aef).(0=>1)   MOVZX_B_R_M : ld   t1b, DS:[rsi]
 PCState: (0x409aec=>0x409aef).(1=>2)   MOVZX_B_R_M : zexti   edx, t1d, 0x7
 PCState: (0x409aef=>0x409af2).(0=>1)   LEA_R_M : lea   eax, DS:[rdx + 0xffffffffffffffd0]
 PCState: (0x409af2=>0x409af4).(0=>1)   CMP_R_I : limm   t1b, 0x9
 PCState: (0x409af2=>0x409af4).(1=>2)   CMP_R_I : sub   t0b, al, t1b
 PCState: (0x409af4=>0x409af6).(0=>1)   JBE_I : rdip   t1, %ctrl153, 
 PCState: (0x409af4=>0x409af6).(1=>2)   JBE_I : limm   t2, 0xffffffffffffffe2
 PCState: (0x409af4=>0x409af6).(2=>3)   JBE_I : wrip   , t1, t2
 PCState: (0x409af6=>0x409af9).(0=>1)   SAL_R_I : slli   edi, edi, 0x8
 PCState: (0x409af9=>0x409afc).(0=>1)   INC_R : addi   r8d, r8d, 0x1
 PCState: (0x409afc=>0x409aff).(0=>1)   INC_R : addi   rsi, rsi, 0x1
 PCState: (0x409aff=>0x409b01).(0=>1)   OR_R_R : or   edi, edi, ecx
 PCState: (0x409b01=>0x409b04).(0=>1)   CMP_R_I : limm   t1b, 0x2e
 PCState: (0x409b01=>0x409b04).(1=>2)   CMP_R_I : sub   t0b, dl, t1b
 PCState: (0x409b04=>0x409b06).(0=>1)   JNZ_I : rdip   t1, %ctrl153, 
 PCState: (0x409b04=>0x409b06).(1=>2)   JNZ_I : limm   t2, 0xa
 PCState: (0x409b04=>0x409b06).(2=>3)   JNZ_I : wrip   , t1, t2
 PCState: (0x409b06=>0x409b09).(0=>1)   MOVZX_B_R_M : ld   t1b, DS:[rsi]
 PCState: (0x409b06=>0x409b09).(1=>2)   MOVZX_B_R_M : zexti   edx, t1d, 0x7
 PCState: (0x409b09=>0x409b0c).(0=>1)   LEA_R_M : lea   eax, DS:[rdx + 0xffffffffffffffd0]
 PCState: (0x409b0c=>0x409b0e).(0=>1)   CMP_R_I : limm   t1b, 0x9
 PCState: (0x409b0c=>0x409b0e).(1=>2)   CMP_R_I : sub   t0b, al, t1b
 PCState: (0x409b0e=>0x409b10).(0=>1)   JBE_I : rdip   t1, %ctrl153, 
 PCState: (0x409b0e=>0x409b10).(1=>2)   JBE_I : limm   t2, 0xffffffffffffffc0
 PCState: (0x409b0e=>0x409ad0).(2=>3)   JBE_I : wrip   , t1, t2
 PCState: (0x409ad0=>0x409ad3).(0=>1)   MOVSX_B_R_R : mov   t1b, t1b, dl
 PCState: (0x409ad0=>0x409ad3).(1=>2)   MOVSX_B_R_R : sexti   eax, t1d, 0x7
 PCState: (0x409ad3=>0x409ad6).(0=>1)   LEA_R_M : lea   ecx, DS:[rax + 0xffffffffffffffd0]
 PCState: (0x409ad6=>0x409ad8).(0=>1)   JMP_I : rdip   t1, %ctrl153, 
 PCState: (0x409ad6=>0x409ad8).(1=>2)   JMP_I : limm   t2, 0x11
 PCState: (0x409ad6=>0x409ae9).(2=>3)   JMP_I : wrip   , t1, t2
 PCState: (0x409ae9=>0x409aec).(0=>1)   INC_R : addi   rsi, rsi, 0x1
 PCState: (0x409aec=>0x409aef).(0=>1)   MOVZX_B_R_M : ld   t1b, DS:[rsi]
 PCState: (0x409aec=>0x409aef).(1=>2)   MOVZX_B_R_M : zexti   edx, t1d, 0x7
 PCState: (0x409aef=>0x409af2).(0=>1)   LEA_R_M : lea   eax, DS:[rdx + 0xffffffffffffffd0]
 PCState: (0x409af2=>0x409af4).(0=>1)   CMP_R_I : limm   t1b, 0x9
 PCState: (0x409af2=>0x409af4).(1=>2)   CMP_R_I : sub   t0b, al, t1b
 PCState: (0x409af4=>0x409af6).(0=>1)   JBE_I : rdip   t1, %ctrl153, 
 PCState: (0x409af4=>0x409af6).(1=>2)   JBE_I : limm   t2, 0xffffffffffffffe2
 PCState: (0x409af4=>0x409af6).(2=>3)   JBE_I : wrip   , t1, t2
 PCState: (0x409af6=>0x409af9).(0=>1)   SAL_R_I : slli   edi, edi, 0x8
 PCState: (0x409af9=>0x409afc).(0=>1)   INC_R : addi   r8d, r8d, 0x1
 PCState: (0x409afc=>0x409aff).(0=>1)   INC_R : addi   rsi, rsi, 0x1
 PCState: (0x409aff=>0x409b01).(0=>1)   OR_R_R : or   edi, edi, ecx
 PCState: (0x409b01=>0x409b04).(0=>1)   CMP_R_I : limm   t1b, 0x2e
 PCState: (0x409b01=>0x409b04).(1=>2)   CMP_R_I : sub   t0b, dl, t1b
 PCState: (0x409b04=>0x409b06).(0=>1)   JNZ_I : rdip   t1, %ctrl153, 
 PCState: (0x409b04=>0x409b06).(1=>2)   JNZ_I : limm   t2, 0xa
 PCState: (0x409b04=>0x409b06).(2=>3)   JNZ_I : wrip   , t1, t2
 PCState: (0x409b06=>0x409b09).(0=>1)   MOVZX_B_R_M : ld   t1b, DS:[rsi]
 PCState: (0x409b06=>0x409b09).(1=>2)   MOVZX_B_R_M : zexti   edx, t1d, 0x7
 PCState: (0x409b09=>0x409b0c).(0=>1)   LEA_R_M : lea   eax, DS:[rdx + 0xffffffffffffffd0]
 PCState: (0x409b0c=>0x409b0e).(0=>1)   CMP_R_I : limm   t1b, 0x9
 PCState: (0x409b0c=>0x409b0e).(1=>2)   CMP_R_I : sub   t0b, al, t1b
 PCState: (0x409b0e=>0x409b10).(0=>1)   JBE_I : rdip   t1, %ctrl153, 
 PCState: (0x409b0e=>0x409b10).(1=>2)   JBE_I : limm   t2, 0xffffffffffffffc0
 PCState: (0x409b0e=>0x409ad0).(2=>3)   JBE_I : wrip   , t1, t2
 PCState: (0x409ad0=>0x409ad3).(0=>1)   MOVSX_B_R_R : mov   t1b, t1b, dl
 PCState: (0x409ad0=>0x409ad3).(1=>2)   MOVSX_B_R_R : sexti   eax, t1d, 0x7
 PCState: (0x409ad3=>0x409ad6).(0=>1)   LEA_R_M : lea   ecx, DS:[rax + 0xffffffffffffffd0]
 PCState: (0x409ad6=>0x409ad8).(0=>1)   JMP_I : rdip   t1, %ctrl153, 
 PCState: (0x409ad6=>0x409ad8).(1=>2)   JMP_I : limm   t2, 0x11
 PCState: (0x409ad6=>0x409ae9).(2=>3)   JMP_I : wrip   , t1, t2
 PCState: (0x409ae9=>0x409aec).(0=>1)   INC_R : addi   rsi, rsi, 0x1
 PCState: (0x409aec=>0x409aef).(0=>1)   MOVZX_B_R_M : ld   t1b, DS:[rsi]
 PCState: (0x409aec=>0x409aef).(1=>2)   MOVZX_B_R_M : zexti   edx, t1d, 0x7
 PCState: (0x409aef=>0x409af2).(0=>1)   LEA_R_M : lea   eax, DS:[rdx + 0xffffffffffffffd0]
 PCState: (0x409af2=>0x409af4).(0=>1)   CMP_R_I : limm   t1b, 0x9
 PCState: (0x409af2=>0x409af4).(1=>2)   CMP_R_I : sub   t0b, al, t1b
 PCState: (0x409af4=>0x409af6).(0=>1)   JBE_I : rdip   t1, %ctrl153, 
 PCState: (0x409af4=>0x409af6).(1=>2)   JBE_I : limm   t2, 0xffffffffffffffe2
 PCState: (0x409af4=>0x409af6).(2=>3)   JBE_I : wrip   , t1, t2
 PCState: (0x409af6=>0x409af9).(0=>1)   SAL_R_I : slli   edi, edi, 0x8
 PCState: (0x409af9=>0x409afc).(0=>1)   INC_R : addi   r8d, r8d, 0x1
 PCState: (0x409afc=>0x409aff).(0=>1)   INC_R : addi   rsi, rsi, 0x1
 PCState: (0x409aff=>0x409b01).(0=>1)   OR_R_R : or   edi, edi, ecx
 PCState: (0x409b01=>0x409b04).(0=>1)   CMP_R_I : limm   t1b, 0x2e
 PCState: (0x409b01=>0x409b04).(1=>2)   CMP_R_I : sub   t0b, dl, t1b
 PCState: (0x409b04=>0x409b06).(0=>1)   JNZ_I : rdip   t1, %ctrl153, 
 PCState: (0x409b04=>0x409b06).(1=>2)   JNZ_I : limm   t2, 0xa
 PCState: (0x409b04=>0x409b10).(2=>3)   JNZ_I : wrip   , t1, t2
 PCState: (0x409b10=>0x409b14).(0=>1)   CMP_R_I : limm   t1d, 0x2
 PCState: (0x409b10=>0x409b14).(1=>2)   CMP_R_I : sub   t0d, r8d, t1d
 PCState: (0x409b14=>0x409b16).(0=>1)   JNLE_I : rdip   t1, %ctrl153, 
 PCState: (0x409b14=>0x409b16).(1=>2)   JNLE_I : limm   t2, 0xd
 PCState: (0x409b14=>0x409b23).(2=>3)   JNLE_I : wrip   , t1, t2
 PCState: (0x409b23=>0x409b29).(0=>1)   CMP_R_I : limm   t1d, 0x20400
 PCState: (0x409b23=>0x409b29).(1=>2)   CMP_R_I : sub   t0d, edi, t1d
 PCState: (0x409b29=>0x409b2f).(0=>1)   JBE_I : rdip   t1, %ctrl153, 
 PCState: (0x409b29=>0x409b2f).(1=>2)   JBE_I : limm   t2, 0xdc
 PCState: (0x409b29=>0x409b2f).(2=>3)   JBE_I : wrip   , t1, t2
 PCState: (0x409b2f=>0x409b35).(0=>1)   MOV_P_R : rdip   t7d, %ctrl153, 
 PCState: (0x409b2f=>0x409b35).(1=>2)   MOV_P_R : st   edi, DS:[t7 + 0x1899fb]
 PCState: (0x409b35=>0x409b3a).(0=>1)   CALL_NEAR_I : limm   t1, 0x4a6
 PCState: (0x409b35=>0x409b3a).(1=>2)   CALL_NEAR_I : rdip   t7, %ctrl153, 
 PCState: (0x409b35=>0x409b3a).(2=>3)   CALL_NEAR_I : stis   t7, SS:[rsp + 0xfffffffffffffff8]
 PCState: (0x409b35=>0x409b3a).(3=>4)   CALL_NEAR_I : subi   rsp, rsp, 0x8
 PCState: (0x409b35=>0x409fe0).(4=>5)   CALL_NEAR_I : wrip   , t7, t1
 PCState: (0x409fe0=>0x409fe5).(0=>1)   MOV_R_I : limm   esi, 0x8
 PCState: (0x409fe5=>0x409fea).(0=>1)   MOV_R_I : limm   edi, 0x20
 PCState: (0x409fea=>0x409fef).(0=>1)   JMP_I : rdip   t1, %ctrl153, 
 PCState: (0x409fea=>0x409fef).(1=>2)   JMP_I : limm   t2, 0xfffffffffffffd11
 PCState: (0x409fea=>0x409d00).(2=>3)   JMP_I : wrip   , t1, t2
 PCState: (0x409d00=>0x409d05).(0=>1)   MOV_M_R : st   r13, DS:[rsp + 0xffffffffffffffe8]
 PCState: (0x409d05=>0x409d0a).(0=>1)   MOV_M_R : st   r14, DS:[rsp + 0xfffffffffffffff0]
 PCState: (0x409d0a=>0x409d0d).(0=>1)   XOR_R_R : xor   r13d, r13d, r13d
 PCState: (0x409d0d=>0x409d12).(0=>1)   MOV_M_R : st   r15, DS:[rsp + 0xfffffffffffffff8]
 PCState: (0x409d12=>0x409d17).(0=>1)   MOV_M_R : st   rbx, DS:[rsp + 0xffffffffffffffd0]
 PCState: (0x409d17=>0x409d1a).(0=>1)   XOR_R_R : xor   r14d, r14d, r14d
 PCState: (0x409d1a=>0x409d1f).(0=>1)   MOV_M_R : st   rbp, DS:[rsp + 0xffffffffffffffd8]
 PCState: (0x409d1f=>0x409d24).(0=>1)   MOV_M_R : st   r12, DS:[rsp + 0xffffffffffffffe0]
 PCState: (0x409d24=>0x409d28).(0=>1)   SUB_R_I : limm   t1, 0x48
 PCState: (0x409d24=>0x409d28).(1=>2)   SUB_R_I : sub   rsp, rsp, t1
 PCState: (0x409d28=>0x409d2f).(0=>1)   MOV_R_P : rdip   t7, %ctrl153, 
 PCState: (0x409d28=>0x409d2f).(1=>2)   MOV_R_P : ld   rax, DS:[t7 + 0x1897b1]
 PCState: (0x409d2f=>0x409d32).(0=>1)   MOV_R_R : mov   r15, r15, rdi
 PCState: (0x409d32=>0x409d3b).(0=>1)   MOV_M_I : limm   t1, 0
 PCState: (0x409d32=>0x409d3b).(1=>2)   MOV_M_I : st   t1, DS:[rsp + 0x10]
 PCState: (0x409d3b=>0x409d44).(0=>1)   MOV_M_I : limm   t1, 0
 PCState: (0x409d3b=>0x409d44).(1=>2)   MOV_M_I : st   t1, DS:[rsp + 0x8]
 PCState: (0x409d44=>0x409d48).(0=>1)   MOV_M_R : st   rsi, SS:[rsp]
 PCState: (0x409d48=>0x409d4b).(0=>1)   TEST_R_R : and   t0, rax, rax
 PCState: (0x409d4b=>0x409d4d).(0=>1)   JZ_I : rdip   t1, %ctrl153, 
 PCState: (0x409d4b=>0x409d4d).(1=>2)   JZ_I : limm   t2, 0x35
 PCState: (0x409d4b=>0x409d4d).(2=>3)   JZ_I : wrip   , t1, t2
 PCState: (0x409d4d=>0x409d54).(0=>1)   MOV_R_P : rdip   t7, %ctrl153, 
 PCState: (0x409d4d=>0x409d54).(1=>2)   MOV_R_P : ld   rdx, DS:[t7 + 0x1897bc]
 PCState: (0x409d54=>0x409d57).(0=>1)   MOV_R_R : mov   rcx, rcx, rax
 PCState: (0x409d57=>0x409d5f).(0=>1)   LEA_R_M : lea   rax, DS:[8*rdx]
 PCState: (0x409d5f=>0x409d62).(0=>1)   SUB_R_R : sub   rax, rax, rdx
 PCState: (0x409d62=>0x409d66).(0=>1)   LEA_R_M : lea   rax, DS:[8*rax + rcx]
 PCState: (0x409d66=>0x409d69).(0=>1)   CMP_R_R : sub   t0, rax, rcx
 PCState: (0x409d69=>0x409d6b).(0=>1)   JBE_I : rdip   t1, %ctrl153, 
 PCState: (0x409d69=>0x409d6b).(1=>2)   JBE_I : limm   t2, 0x17
 PCState: (0x409d69=>0x409d6b).(2=>3)   JBE_I : wrip   , t1, t2
 PCState: (0x409d6b=>0x409d6e).(0=>1)   NOP   
 PCState: (0x409d6e=>0x409d70).(0=>1)   NOP   
 PCState: (0x409d70=>0x409d73).(0=>1)   CMP_M_I : limm   t2d, 0x7
 PCState: (0x409d70=>0x409d73).(1=>2)   CMP_M_I : ld   t1d, DS:[rcx]
 PCState: (0x409d70=>0x409d73).(2=>3)   CMP_M_I : sub   t0d, t1d, t2d
 PCState: (0x409d73=>0x409d79).(0=>1)   JZ_I : rdip   t1, %ctrl153, 
 PCState: (0x409d73=>0x409d79).(1=>2)   JZ_I : limm   t2, 0x1d9
 PCState: (0x409d73=>0x409d79).(2=>3)   JZ_I : wrip   , t1, t2
 PCState: (0x409d79=>0x409d7d).(0=>1)   ADD_R_I : limm   t1, 0x38
 PCState: (0x409d79=>0x409d7d).(1=>2)   ADD_R_I : add   rcx, rcx, t1
 PCState: (0x409d7d=>0x409d80).(0=>1)   CMP_R_R : sub   t0, rax, rcx
 PCState: (0x409d80=>0x409d82).(0=>1)   JNBE_I : rdip   t1, %ctrl153, 
 PCState: (0x409d80=>0x409d82).(1=>2)   JNBE_I : limm   t2, 0xffffffffffffffee
 PCState: (0x409d80=>0x409d70).(2=>3)   JNBE_I : wrip   , t1, t2
 PCState: (0x409d70=>0x409d73).(0=>1)   CMP_M_I : limm   t2d, 0x7
 PCState: (0x409d70=>0x409d73).(1=>2)   CMP_M_I : ld   t1d, DS:[rcx]
 PCState: (0x409d70=>0x409d73).(2=>3)   CMP_M_I : sub   t0d, t1d, t2d
 PCState: (0x409d73=>0x409d79).(0=>1)   JZ_I : rdip   t1, %ctrl153, 
 PCState: (0x409d73=>0x409d79).(1=>2)   JZ_I : limm   t2, 0x1d9
 PCState: (0x409d73=>0x409d79).(2=>3)   JZ_I : wrip   , t1, t2
 PCState: (0x409d79=>0x409d7d).(0=>1)   ADD_R_I : limm   t1, 0x38
 PCState: (0x409d79=>0x409d7d).(1=>2)   ADD_R_I : add   rcx, rcx, t1
 PCState: (0x409d7d=>0x409d80).(0=>1)   CMP_R_R : sub   t0, rax, rcx
 PCState: (0x409d80=>0x409d82).(0=>1)   JNBE_I : rdip   t1, %ctrl153, 
 PCState: (0x409d80=>0x409d82).(1=>2)   JNBE_I : limm   t2, 0xffffffffffffffee
 PCState: (0x409d80=>0x409d70).(2=>3)   JNBE_I : wrip   , t1, t2
 PCState: (0x409d70=>0x409d73).(0=>1)   CMP_M_I : limm   t2d, 0x7
 PCState: (0x409d70=>0x409d73).(1=>2)   CMP_M_I : ld   t1d, DS:[rcx]
 PCState: (0x409d70=>0x409d73).(2=>3)   CMP_M_I : sub   t0d, t1d, t2d
 PCState: (0x409d73=>0x409d79).(0=>1)   JZ_I : rdip   t1, %ctrl153, 
 PCState: (0x409d73=>0x409d79).(1=>2)   JZ_I : limm   t2, 0x1d9
 PCState: (0x409d73=>0x409d79).(2=>3)   JZ_I : wrip   , t1, t2
 PCState: (0x409d79=>0x409d7d).(0=>1)   ADD_R_I : limm   t1, 0x38
 PCState: (0x409d79=>0x409d7d).(1=>2)   ADD_R_I : add   rcx, rcx, t1
 PCState: (0x409d7d=>0x409d80).(0=>1)   CMP_R_R : sub   t0, rax, rcx
 PCState: (0x409d80=>0x409d82).(0=>1)   JNBE_I : rdip   t1, %ctrl153, 
 PCState: (0x409d80=>0x409d82).(1=>2)   JNBE_I : limm   t2, 0xffffffffffffffee
 PCState: (0x409d80=>0x409d70).(2=>3)   JNBE_I : wrip   , t1, t2
 PCState: (0x409d70=>0x409d73).(0=>1)   CMP_M_I : limm   t2d, 0x7
 PCState: (0x409d70=>0x409d73).(1=>2)   CMP_M_I : ld   t1d, DS:[rcx]
 PCState: (0x409d70=>0x409d73).(2=>3)   CMP_M_I : sub   t0d, t1d, t2d
 PCState: (0x409d73=>0x409d79).(0=>1)   JZ_I : rdip   t1, %ctrl153, 
 PCState: (0x409d73=>0x409d79).(1=>2)   JZ_I : limm   t2, 0x1d9
 PCState: (0x409d73=>0x409d79).(2=>3)   JZ_I : wrip   , t1, t2
 PCState: (0x409d79=>0x409d7d).(0=>1)   ADD_R_I : limm   t1, 0x38
 PCState: (0x409d79=>0x409d7d).(1=>2)   ADD_R_I : add   rcx, rcx, t1
 PCState: (0x409d7d=>0x409d80).(0=>1)   CMP_R_R : sub   t0, rax, rcx
 PCState: (0x409d80=>0x409d82).(0=>1)   JNBE_I : rdip   t1, %ctrl153, 
 PCState: (0x409d80=>0x409d82).(1=>2)   JNBE_I : limm   t2, 0xffffffffffffffee
 PCState: (0x409d80=>0x409d70).(2=>3)   JNBE_I : wrip   , t1, t2
 PCState: (0x409d70=>0x409d73).(0=>1)   CMP_M_I : limm   t2d, 0x7
 PCState: (0x409d70=>0x409d73).(1=>2)   CMP_M_I : ld   t1d, DS:[rcx]
 PCState: (0x409d70=>0x409d73).(2=>3)   CMP_M_I : sub   t0d, t1d, t2d
 PCState: (0x409d73=>0x409d79).(0=>1)   JZ_I : rdip   t1, %ctrl153, 
 PCState: (0x409d73=>0x409d79).(1=>2)   JZ_I : limm   t2, 0x1d9
 PCState: (0x409d73=>0x409d79).(2=>3)   JZ_I : wrip   , t1, t2
 PCState: (0x409d79=>0x409d7d).(0=>1)   ADD_R_I : limm   t1, 0x38
 PCState: (0x409d79=>0x409d7d).(1=>2)   ADD_R_I : add   rcx, rcx, t1
 PCState: (0x409d7d=>0x409d80).(0=>1)   CMP_R_R : sub   t0, rax, rcx
 PCState: (0x409d80=>0x409d82).(0=>1)   JNBE_I : rdip   t1, %ctrl153, 
 PCState: (0x409d80=>0x409d82).(1=>2)   JNBE_I : limm   t2, 0xffffffffffffffee
 PCState: (0x409d80=>0x409d82).(2=>3)   JNBE_I : wrip   , t1, t2
 PCState: (0x409d82=>0x409d85).(0=>1)   TEST_R_R : and   t0, r13, r13
 PCState: (0x409d85=>0x409d88).(0=>1)   SETZ_R : movi   dl, dl, 0x1
 PCState: (0x409d85=>0x409d88).(1=>2)   SETZ_R : movi   dl, dl, 0
 PCState: (0x409d88=>0x409d8a).(0=>1)   XOR_R_R : xor   eax, eax, eax
 PCState: (0x409d8a=>0x409d8e).(0=>1)   CMP_R_I : limm   t1, 0x20
 PCState: (0x409d8a=>0x409d8e).(1=>2)   CMP_R_I : sub   t0, r15, t1
 PCState: (0x409d8e=>0x409d91).(0=>1)   SETBE_R : movi   al, al, 0x1
 PCState: (0x409d8e=>0x409d91).(1=>2)   SETBE_R : movi   al, al, 0
 PCState: (0x409d91=>0x409d93).(0=>1)   TEST_R_R : and   t0d, edx, eax
 PCState: (0x409d93=>0x409d95).(0=>1)   JZ_I : rdip   t1, %ctrl153, 
 PCState: (0x409d93=>0x409d95).(1=>2)   JZ_I : limm   t2, 0x23
 PCState: (0x409d93=>0x409d95).(2=>3)   JZ_I : wrip   , t1, t2
 PCState: (0x409d95=>0x409d9a).(0=>1)   MOV_R_M : ld   rbx, DS:[rsp + 0x18]
 PCState: (0x409d9a=>0x409d9f).(0=>1)   MOV_R_M : ld   rbp, DS:[rsp + 0x20]
 PCState: (0x409d9f=>0x409da4).(0=>1)   MOV_R_M : ld   r12, DS:[rsp + 0x28]
 PCState: (0x409da4=>0x409da9).(0=>1)   MOV_R_M : ld   r13, DS:[rsp + 0x30]
 PCState: (0x409da9=>0x409dae).(0=>1)   MOV_R_M : ld   r14, DS:[rsp + 0x38]
 PCState: (0x409dae=>0x409db3).(0=>1)   MOV_R_M : ld   r15, DS:[rsp + 0x40]
 PCState: (0x409db3=>0x409db7).(0=>1)   ADD_R_I : limm   t1, 0x48
 PCState: (0x409db3=>0x409db7).(1=>2)   ADD_R_I : add   rsp, rsp, t1
 PCState: (0x409db7=>0x409db8).(0=>1)   RET_NEAR : ld   t1, SS:[rsp]
 PCState: (0x409db7=>0x409db8).(1=>2)   RET_NEAR : addi   rsp, rsp, 0x8
 PCState: (0x409db7=>0x409b3a).(2=>3)   RET_NEAR : wripi   , t1, 0
 PCState: (0x409b3a=>0x409b3d).(0=>1)   TEST_R_R : and   t0, r15, r15
 PCState: (0x409b3d=>0x409b3f).(0=>1)   JZ_I : rdip   t1, %ctrl153, 
 PCState: (0x409b3d=>0x409b3f).(1=>2)   JZ_I : limm   t2, 0xc
 PCState: (0x409b3d=>0x409b4b).(2=>3)   JZ_I : wrip   , t1, t2
 PCState: (0x409b4b=>0x409b52).(0=>1)   MOV_R_P : rdip   t7, %ctrl153, 
 PCState: (0x409b4b=>0x409b52).(1=>2)   MOV_R_P : ld   rdx, DS:[t7 + 0x1892a6]
 PCState: (0x409b52=>0x409b55).(0=>1)   MOV_R_R : mov   rsi, rsi, r14
 PCState: (0x409b55=>0x409b58).(0=>1)   MOV_R_R : mov   edi, edi, r13d
 PCState: (0x409b58=>0x409b5d).(0=>1)   CALL_NEAR_I : limm   t1, 0xc713
 PCState: (0x409b58=>0x409b5d).(1=>2)   CALL_NEAR_I : rdip   t7, %ctrl153, 
 PCState: (0x409b58=>0x409b5d).(2=>3)   CALL_NEAR_I : stis   t7, SS:[rsp + 0xfffffffffffffff8]
 PCState: (0x409b58=>0x409b5d).(3=>4)   CALL_NEAR_I : subi   rsp, rsp, 0x8
 PCState: (0x409b58=>0x416270).(4=>5)   CALL_NEAR_I : wrip   , t7, t1
 PCState: (0x416270=>0x416275).(0=>1)   JMP_I : rdip   t1, %ctrl153, 
 PCState: (0x416270=>0x416275).(1=>2)   JMP_I : limm   t2, 0xffffffffffffff6b
 PCState: (0x416270=>0x4161e0).(2=>3)   JMP_I : wrip   , t1, t2
 PCState: (0x4161e0=>0x4161e5).(0=>1)   MOV_R_I : limm   eax, 0
 PCState: (0x4161e5=>0x4161ea).(0=>1)   MOV_M_R : st   rbx, DS:[rsp + 0xffffffffffffffe8]
 PCState: (0x4161ea=>0x4161ef).(0=>1)   MOV_M_R : st   rbp, DS:[rsp + 0xfffffffffffffff0]
 PCState: (0x4161ef=>0x4161f4).(0=>1)   MOV_M_R : st   r12, DS:[rsp + 0xfffffffffffffff8]
 PCState: (0x4161f4=>0x4161f7).(0=>1)   MOV_R_R : mov   rbx, rbx, rdx
 PCState: (0x4161f7=>0x4161fb).(0=>1)   SUB_R_I : limm   t1, 0x18
 PCState: (0x4161f7=>0x4161fb).(1=>2)   SUB_R_I : sub   rsp, rsp, t1
 PCState: (0x4161fb=>0x4161fd).(0=>1)   XOR_R_R : xor   edx, edx, edx
 PCState: (0x4161fd=>0x416200).(0=>1)   TEST_R_R : and   t0, rax, rax
 PCState: (0x416200=>0x416203).(0=>1)   MOV_R_R : mov   r12d, r12d, edi
 PCState: (0x416203=>0x416206).(0=>1)   MOV_R_R : mov   rbp, rbp, rsi
 PCState: (0x416206=>0x416208).(0=>1)   JZ_I : rdip   t1, %ctrl153, 
 PCState: (0x416206=>0x416208).(1=>2)   JZ_I : limm   t2, 0x10
 PCState: (0x416206=>0x416218).(2=>3)   JZ_I : wrip   , t1, t2
 PCState: (0x416218=>0x41621a).(0=>1)   TEST_R_R : and   t0d, edx, edx
 PCState: (0x41621a=>0x416220).(0=>1)   MOV_P_R : rdip   t7d, %ctrl153, 
 PCState: (0x41621a=>0x416220).(1=>2)   MOV_P_R : st   edx, DS:[t7 + 0x16a590]
 PCState: (0x416220=>0x416222).(0=>1)   JZ_I : rdip   t1, %ctrl153, 
 PCState: (0x416220=>0x416222).(1=>2)   JZ_I : limm   t2, 0x3f
 PCState: (0x416220=>0x416261).(2=>3)   JZ_I : wrip   , t1, t2
 PCState: (0x416261=>0x416268).(0=>1)   MOVZX_W_R_P : rdip   t7d, %ctrl153, 
 PCState: (0x416261=>0x416268).(1=>2)   MOVZX_W_R_P : ld   t1w, DS:[t7 + 0x16a778]
 PCState: (0x416261=>0x416268).(2=>3)   MOVZX_W_R_P : zexti   edi, t1d, 0xf
 PCState: (0x416268=>0x41626d).(0=>1)   CALL_NEAR_I : limm   t1, 0x3c43
 PCState: (0x416268=>0x41626d).(1=>2)   CALL_NEAR_I : rdip   t7, %ctrl153, 
 PCState: (0x416268=>0x41626d).(2=>3)   CALL_NEAR_I : stis   t7, SS:[rsp + 0xfffffffffffffff8]
 PCState: (0x416268=>0x41626d).(3=>4)   CALL_NEAR_I : subi   rsp, rsp, 0x8
 PCState: (0x416268=>0x419eb0).(4=>5)   CALL_NEAR_I : wrip   , t7, t1
 PCState: (0x419eb0=>0x419eb4).(0=>1)   FNSTCW_M : rdval   t1w, %ctrl193, 
 PCState: (0x419eb0=>0x419eb4).(1=>2)   FNSTCW_M : st   t1w, DS:[rsp + 0xfffffffffffffffe]
 PCState: (0x419eb4=>0x419eb9).(0=>1)   MOVZX_W_R_M : ld   t1w, DS:[rsp + 0xfffffffffffffffe]
 PCState: (0x419eb4=>0x419eb9).(1=>2)   MOVZX_W_R_M : zexti   eax, t1d, 0xf
 PCState: (0x419eb9=>0x419ebe).(0=>1)   AND_R_I : limm   t1w, 0xf3f
 PCState: (0x419eb9=>0x419ebe).(1=>2)   AND_R_I : and   di, di, t1w
 PCState: (0x419ebe=>0x419ec2).(0=>1)   AND_R_I : limm   t1w, 0xf0c0
 PCState: (0x419ebe=>0x419ec2).(1=>2)   AND_R_I : and   ax, ax, t1w
 PCState: (0x419ec2=>0x419ec4).(0=>1)   OR_R_R : or   edi, edi, eax
 PCState: (0x419ec4=>0x419ec9).(0=>1)   MOV_M_R : st   di, DS:[rsp + 0xfffffffffffffffe]
 PCState: (0x419ec9=>0x419ecd).(0=>1)   FLDCW_M : ld   t1w, DS:[rsp + 0xfffffffffffffffe]
 PCState: (0x419ec9=>0x419ecd).(1=>2)   FLDCW_M : wrval   %ctrl193, t1w, 
 PCState: (0x419ecd=>0x419ece).(0=>1)   RET_NEAR : ld   t1, SS:[rsp]
 PCState: (0x419ecd=>0x419ece).(1=>2)   RET_NEAR : addi   rsp, rsp, 0x8
 PCState: (0x419ecd=>0x41626d).(2=>3)   RET_NEAR : wripi   , t1, 0
 PCState: (0x41626d=>0x41626f).(0=>1)   JMP_I : rdip   t1, %ctrl153, 
 PCState: (0x41626d=>0x41626f).(1=>2)   JMP_I : limm   t2, 0xffffffffffffffb3
 PCState: (0x41626d=>0x416222).(2=>3)   JMP_I : wrip   , t1, t2
 PCState: (0x416222=>0x416229).(0=>1)   MOV_P_R : rdip   t7d, %ctrl153, 
 PCState: (0x416222=>0x416229).(1=>2)   MOV_P_R : st   r12d, DS:[t7 + 0x17d36f]
 PCState: (0x416229=>0x416230).(0=>1)   MOV_P_R : rdip   t7, %ctrl153, 
 PCState: (0x416229=>0x416230).(1=>2)   MOV_P_R : st   rbp, DS:[t7 + 0x17d370]
 PCState: (0x416230=>0x416237).(0=>1)   MOV_P_R : rdip   t7, %ctrl153, 
 PCState: (0x416230=>0x416237).(1=>2)   MOV_P_R : st   rbx, DS:[t7 + 0x17cbc1]
 PCState: (0x416237=>0x41623c).(0=>1)   CALL_NEAR_I : limm   t1, 0xffffffffffffff34
 PCState: (0x416237=>0x41623c).(1=>2)   CALL_NEAR_I : rdip   t7, %ctrl153, 
 PCState: (0x416237=>0x41623c).(2=>3)   CALL_NEAR_I : stis   t7, SS:[rsp + 0xfffffffffffffff8]
 PCState: (0x416237=>0x41623c).(3=>4)   CALL_NEAR_I : subi   rsp, rsp, 0x8
 PCState: (0x416237=>0x416170).(4=>5)   CALL_NEAR_I : wrip   , t7, t1
 PCState: (0x416170=>0x416175).(0=>1)   MOV_M_R : st   rbx, DS:[rsp + 0xfffffffffffffff0]
 PCState: (0x416175=>0x41617a).(0=>1)   MOV_M_R : st   rbp, DS:[rsp + 0xfffffffffffffff8]
 PCState: (0x41617a=>0x41617e).(0=>1)   SUB_R_I : limm   t1, 0x18
 PCState: (0x41617a=>0x41617e).(1=>2)   SUB_R_I : sub   rsp, rsp, t1
 PCState: (0x41617e=>0x416184).(0=>1)   MOV_R_P : rdip   t7d, %ctrl153, 
 PCState: (0x41617e=>0x416184).(1=>2)   MOV_R_P : ld   eax, DS:[t7 + 0x17d40c]
 PCState: (0x416184=>0x416186).(0=>1)   TEST_R_R : and   t0d, eax, eax
 PCState: (0x416186=>0x416188).(0=>1)   JZ_I : rdip   t1, %ctrl153, 
 PCState: (0x416186=>0x416188).(1=>2)   JZ_I : limm   t2, 0xf
 PCState: (0x416186=>0x416188).(2=>3)   JZ_I : wrip   , t1, t2
 PCState: (0x416188=>0x41618d).(0=>1)   MOV_R_M : ld   rbx, DS:[rsp + 0x8]
 PCState: (0x41618d=>0x416192).(0=>1)   MOV_R_M : ld   rbp, DS:[rsp + 0x10]
 PCState: (0x416192=>0x416196).(0=>1)   ADD_R_I : limm   t1, 0x18
 PCState: (0x416192=>0x416196).(1=>2)   ADD_R_I : add   rsp, rsp, t1
 PCState: (0x416196=>0x416197).(0=>1)   RET_NEAR : ld   t1, SS:[rsp]
 PCState: (0x416196=>0x416197).(1=>2)   RET_NEAR : addi   rsp, rsp, 0x8
 PCState: (0x416196=>0x41623c).(2=>3)   RET_NEAR : wripi   , t1, 0
 PCState: (0x41623c=>0x416241).(0=>1)   CALL_NEAR_I : limm   t1, 0xfffffffffffffa2f
 PCState: (0x41623c=>0x416241).(1=>2)   CALL_NEAR_I : rdip   t7, %ctrl153, 
 PCState: (0x41623c=>0x416241).(2=>3)   CALL_NEAR_I : stis   t7, SS:[rsp + 0xfffffffffffffff8]
 PCState: (0x41623c=>0x416241).(3=>4)   CALL_NEAR_I : subi   rsp, rsp, 0x8
 PCState: (0x41623c=>0x415c70).(4=>5)   CALL_NEAR_I : wrip   , t7, t1
 PCState: (0x415c70=>0x415c72).(0=>1)   PUSH_R : stis   r13, SS:[rsp + 0xfffffffffffffff8]
 PCState: (0x415c70=>0x415c72).(1=>2)   PUSH_R : subi   rsp, rsp, 0x8
 PCState: (0x415c72=>0x415c74).(0=>1)   PUSH_R : stis   r12, SS:[rsp + 0xfffffffffffffff8]
 PCState: (0x415c72=>0x415c74).(1=>2)   PUSH_R : subi   rsp, rsp, 0x8
 PCState: (0x415c74=>0x415c75).(0=>1)   PUSH_R : stis   rbp, SS:[rsp + 0xfffffffffffffff8]
 PCState: (0x415c74=>0x415c75).(1=>2)   PUSH_R : subi   rsp, rsp, 0x8
 PCState: (0x415c75=>0x415c76).(0=>1)   PUSH_R : stis   rbx, SS:[rsp + 0xfffffffffffffff8]
 PCState: (0x415c75=>0x415c76).(1=>2)   PUSH_R : subi   rsp, rsp, 0x8
 PCState: (0x415c76=>0x415c7a).(0=>1)   SUB_R_I : limm   t1, 0x8
 PCState: (0x415c76=>0x415c7a).(1=>2)   SUB_R_I : sub   rsp, rsp, t1
 PCState: (0x415c7a=>0x415c7c).(0=>1)   RDTSC : rdtsc   t1d, %ctrl26, 
 PCState: (0x415c7a=>0x415c7c).(1=>2)   RDTSC : mov   eax, eax, t1d
 PCState: (0x415c7a=>0x415c7c).(2=>3)   RDTSC : srli   rdx, t1, 0x20
 PCState: (0x415c7c=>0x415c80).(0=>1)   SAL_R_I : slli   rdx, rdx, 0x20
 PCState: (0x415c80=>0x415c82).(0=>1)   MOV_R_R : mov   eax, eax, eax
 PCState: (0x415c82=>0x415c85).(0=>1)   OR_R_R : or   rdx, rdx, rax
 PCState: (0x415c85=>0x415c8d).(0=>1)   CMP_P_I : limm   t2, 0
 PCState: (0x415c85=>0x415c8d).(1=>2)   CMP_P_I : rdip   t7, %ctrl153, 
 PCState: (0x415c85=>0x415c8d).(2=>3)   CMP_P_I : ld   t1, DS:[t7 + 0x17d8b3]
 PCState: (0x415c85=>0x415c8d).(3=>4)   CMP_P_I : sub   t0, t1, t2
 PCState: (0x415c8d=>0x415c94).(0=>1)   MOV_P_R : rdip   t7, %ctrl153, 
 PCState: (0x415c8d=>0x415c94).(1=>2)   MOV_P_R : st   rdx, DS:[t7 + 0x17d82c]
 PCState: (0x415c94=>0x415c96).(0=>1)   JNZ_I : rdip   t1, %ctrl153, 
 PCState: (0x415c94=>0x415c96).(1=>2)   JNZ_I : limm   t2, 0xe
 PCState: (0x415c94=>0x415ca4).(2=>3)   JNZ_I : wrip   , t1, t2
 PCState: (0x415ca4=>0x415ca9).(0=>1)   MOV_R_I : limm   edi, 0x45ed49
 PCState: (0x415ca9=>0x415cae).(0=>1)   MOV_R_I : limm   ebx, 0x471707
 PCState: (0x415cae=>0x415cb3).(0=>1)   CALL_NEAR_I : limm   t1, 0x466d
 PCState: (0x415cae=>0x415cb3).(1=>2)   CALL_NEAR_I : rdip   t7, %ctrl153, 
 PCState: (0x415cae=>0x415cb3).(2=>3)   CALL_NEAR_I : stis   t7, SS:[rsp + 0xfffffffffffffff8]
 PCState: (0x415cae=>0x415cb3).(3=>4)   CALL_NEAR_I : subi   rsp, rsp, 0x8
 PCState: (0x415cae=>0x41a320).(4=>5)   CALL_NEAR_I : wrip   , t7, t1
 PCState: (0x41a320=>0x41a325).(0=>1)   MOV_M_R : st   r12, DS:[rsp + 0xffffffffffffffe8]
 PCState: (0x41a325=>0x41a32a).(0=>1)   MOV_M_R : st   r14, DS:[rsp + 0xfffffffffffffff8]
 PCState: (0x41a32a=>0x41a32d).(0=>1)   MOV_R_R : mov   r12, r12, rdi
 PCState: (0x41a32d=>0x41a332).(0=>1)   MOV_M_R : st   rbx, DS:[rsp + 0xffffffffffffffd8]
 PCState: (0x41a332=>0x41a337).(0=>1)   MOV_M_R : st   rbp, DS:[rsp + 0xffffffffffffffe0]
 PCState: (0x41a337=>0x41a33c).(0=>1)   MOV_M_R : st   r13, DS:[rsp + 0xfffffffffffffff0]
 PCState: (0x41a33c=>0x41a340).(0=>1)   SUB_R_I : limm   t1, 0x28
 PCState: (0x41a33c=>0x41a340).(1=>2)   SUB_R_I : sub   rsp, rsp, t1
 PCState: (0x41a340=>0x41a345).(0=>1)   CALL_NEAR_I : limm   t1, 0xffffffffffff79cb
 PCState: (0x41a340=>0x41a345).(1=>2)   CALL_NEAR_I : rdip   t7, %ctrl153, 
 PCState: (0x41a340=>0x41a345).(2=>3)   CALL_NEAR_I : stis   t7, SS:[rsp + 0xfffffffffffffff8]
 PCState: (0x41a340=>0x41a345).(3=>4)   CALL_NEAR_I : subi   rsp, rsp, 0x8
 PCState: (0x41a340=>0x411d10).(4=>5)   CALL_NEAR_I : wrip   , t7, t1
 PCState: (0x411d10=>0x411d13).(0=>1)   MOV_R_R : mov   rsi, rsi, rdi
 PCState: (0x411d13=>0x411d16).(0=>1)   NEG_R : sub   rdi, t0, rdi
 PCState: (0x411d16=>0x411d19).(0=>1)   MOV_R_R : mov   r8, r8, rsi
 PCState: (0x411d19=>0x411d1d).(0=>1)   AND_R_I : limm   t1d, 0x7
 PCState: (0x411d19=>0x411d1d).(1=>2)   AND_R_I : and   r8d, r8d, t1d
 PCState: (0x411d1d=>0x411d1f).(0=>1)   JZ_I : rdip   t1, %ctrl153, 
 PCState: (0x411d1d=>0x411d1f).(1=>2)   JZ_I : limm   t2, 0x31
 PCState: (0x411d1d=>0x411d1f).(2=>3)   JZ_I : wrip   , t1, t2
 PCState: (0x411d1f=>0x411d23).(0=>1)   SUB_R_I : limm   t1, 0x8
 PCState: (0x411d1f=>0x411d23).(1=>2)   SUB_R_I : sub   r8, r8, t1
 PCState: (0x411d23=>0x411d27).(0=>1)   NOP   
 PCState: (0x411d27=>0x411d2a).(0=>1)   NOP   
 PCState: (0x411d2a=>0x411d2d).(0=>1)   NOP   
 PCState: (0x411d2d=>0x411d30).(0=>1)   NOP   
 PCState: (0x411d30=>0x411d33).(0=>1)   CMP_M_I : limm   t2b, 0
 PCState: (0x411d30=>0x411d33).(1=>2)   CMP_M_I : ld   t1b, DS:[rsi]
 PCState: (0x411d30=>0x411d33).(2=>3)   CMP_M_I : sub   t0b, t1b, t2b
 PCState: (0x411d33=>0x411d39).(0=>1)   JZ_I : rdip   t1, %ctrl153, 
 PCState: (0x411d33=>0x411d39).(1=>2)   JZ_I : limm   t2, 0x367
 PCState: (0x411d33=>0x411d39).(2=>3)   JZ_I : wrip   , t1, t2
 PCState: (0x411d39=>0x411d3c).(0=>1)   INC_R : addi   rsi, rsi, 0x1
 PCState: (0x411d3c=>0x411d3f).(0=>1)   INC_R : addi   r8, r8, 0x1
 PCState: (0x411d3f=>0x411d41).(0=>1)   JNZ_I : rdip   t1, %ctrl153, 
 PCState: (0x411d3f=>0x411d41).(1=>2)   JNZ_I : limm   t2, 0xffffffffffffffef
 PCState: (0x411d3f=>0x411d30).(2=>3)   JNZ_I : wrip   , t1, t2
 PCState: (0x411d30=>0x411d33).(0=>1)   CMP_M_I : limm   t2b, 0
 PCState: (0x411d30=>0x411d33).(1=>2)   CMP_M_I : ld   t1b, DS:[rsi]
 PCState: (0x411d30=>0x411d33).(2=>3)   CMP_M_I : sub   t0b, t1b, t2b
 PCState: (0x411d33=>0x411d39).(0=>1)   JZ_I : rdip   t1, %ctrl153, 
 PCState: (0x411d33=>0x411d39).(1=>2)   JZ_I : limm   t2, 0x367
 PCState: (0x411d33=>0x411d39).(2=>3)   JZ_I : wrip   , t1, t2
 PCState: (0x411d39=>0x411d3c).(0=>1)   INC_R : addi   rsi, rsi, 0x1
 PCState: (0x411d3c=>0x411d3f).(0=>1)   INC_R : addi   r8, r8, 0x1
 PCState: (0x411d3f=>0x411d41).(0=>1)   JNZ_I : rdip   t1, %ctrl153, 
 PCState: (0x411d3f=>0x411d41).(1=>2)   JNZ_I : limm   t2, 0xffffffffffffffef
 PCState: (0x411d3f=>0x411d30).(2=>3)   JNZ_I : wrip   , t1, t2
 PCState: (0x411d30=>0x411d33).(0=>1)   CMP_M_I : limm   t2b, 0
 PCState: (0x411d30=>0x411d33).(1=>2)   CMP_M_I : ld   t1b, DS:[rsi]
 PCState: (0x411d30=>0x411d33).(2=>3)   CMP_M_I : sub   t0b, t1b, t2b
 PCState: (0x411d33=>0x411d39).(0=>1)   JZ_I : rdip   t1, %ctrl153, 
 PCState: (0x411d33=>0x411d39).(1=>2)   JZ_I : limm   t2, 0x367
 PCState: (0x411d33=>0x411d39).(2=>3)   JZ_I : wrip   , t1, t2
 PCState: (0x411d39=>0x411d3c).(0=>1)   INC_R : addi   rsi, rsi, 0x1
 PCState: (0x411d3c=>0x411d3f).(0=>1)   INC_R : addi   r8, r8, 0x1
 PCState: (0x411d3f=>0x411d41).(0=>1)   JNZ_I : rdip   t1, %ctrl153, 
 PCState: (0x411d3f=>0x411d41).(1=>2)   JNZ_I : limm   t2, 0xffffffffffffffef
 PCState: (0x411d3f=>0x411d30).(2=>3)   JNZ_I : wrip   , t1, t2
 PCState: (0x411d30=>0x411d33).(0=>1)   CMP_M_I : limm   t2b, 0
 PCState: (0x411d30=>0x411d33).(1=>2)   CMP_M_I : ld   t1b, DS:[rsi]
 PCState: (0x411d30=>0x411d33).(2=>3)   CMP_M_I : sub   t0b, t1b, t2b
 PCState: (0x411d33=>0x411d39).(0=>1)   JZ_I : rdip   t1, %ctrl153, 
 PCState: (0x411d33=>0x411d39).(1=>2)   JZ_I : limm   t2, 0x367
 PCState: (0x411d33=>0x411d39).(2=>3)   JZ_I : wrip   , t1, t2
 PCState: (0x411d39=>0x411d3c).(0=>1)   INC_R : addi   rsi, rsi, 0x1
 PCState: (0x411d3c=>0x411d3f).(0=>1)   INC_R : addi   r8, r8, 0x1
 PCState: (0x411d3f=>0x411d41).(0=>1)   JNZ_I : rdip   t1, %ctrl153, 
 PCState: (0x411d3f=>0x411d41).(1=>2)   JNZ_I : limm   t2, 0xffffffffffffffef
 PCState: (0x411d3f=>0x411d30).(2=>3)   JNZ_I : wrip   , t1, t2
 PCState: (0x411d30=>0x411d33).(0=>1)   CMP_M_I : limm   t2b, 0
 PCState: (0x411d30=>0x411d33).(1=>2)   CMP_M_I : ld   t1b, DS:[rsi]
 PCState: (0x411d30=>0x411d33).(2=>3)   CMP_M_I : sub   t0b, t1b, t2b
 PCState: (0x411d33=>0x411d39).(0=>1)   JZ_I : rdip   t1, %ctrl153, 
 PCState: (0x411d33=>0x411d39).(1=>2)   JZ_I : limm   t2, 0x367
 PCState: (0x411d33=>0x411d39).(2=>3)   JZ_I : wrip   , t1, t2
 PCState: (0x411d39=>0x411d3c).(0=>1)   INC_R : addi   rsi, rsi, 0x1
 PCState: (0x411d3c=>0x411d3f).(0=>1)   INC_R : addi   r8, r8, 0x1
 PCState: (0x411d3f=>0x411d41).(0=>1)   JNZ_I : rdip   t1, %ctrl153, 
 PCState: (0x411d3f=>0x411d41).(1=>2)   JNZ_I : limm   t2, 0xffffffffffffffef
 PCState: (0x411d3f=>0x411d30).(2=>3)   JNZ_I : wrip   , t1, t2
 PCState: (0x411d30=>0x411d33).(0=>1)   CMP_M_I : limm   t2b, 0
 PCState: (0x411d30=>0x411d33).(1=>2)   CMP_M_I : ld   t1b, DS:[rsi]
 PCState: (0x411d30=>0x411d33).(2=>3)   CMP_M_I : sub   t0b, t1b, t2b
 PCState: (0x411d33=>0x411d39).(0=>1)   JZ_I : rdip   t1, %ctrl153, 
 PCState: (0x411d33=>0x411d39).(1=>2)   JZ_I : limm   t2, 0x367
 PCState: (0x411d33=>0x411d39).(2=>3)   JZ_I : wrip   , t1, t2
 PCState: (0x411d39=>0x411d3c).(0=>1)   INC_R : addi   rsi, rsi, 0x1
 PCState: (0x411d3c=>0x411d3f).(0=>1)   INC_R : addi   r8, r8, 0x1
 PCState: (0x411d3f=>0x411d41).(0=>1)   JNZ_I : rdip   t1, %ctrl153, 
 PCState: (0x411d3f=>0x411d41).(1=>2)   JNZ_I : limm   t2, 0xffffffffffffffef
 PCState: (0x411d3f=>0x411d30).(2=>3)   JNZ_I : wrip   , t1, t2
 PCState: (0x411d30=>0x411d33).(0=>1)   CMP_M_I : limm   t2b, 0
 PCState: (0x411d30=>0x411d33).(1=>2)   CMP_M_I : ld   t1b, DS:[rsi]
 PCState: (0x411d30=>0x411d33).(2=>3)   CMP_M_I : sub   t0b, t1b, t2b
 PCState: (0x411d33=>0x411d39).(0=>1)   JZ_I : rdip   t1, %ctrl153, 
 PCState: (0x411d33=>0x411d39).(1=>2)   JZ_I : limm   t2, 0x367
 PCState: (0x411d33=>0x411d39).(2=>3)   JZ_I : wrip   , t1, t2
 PCState: (0x411d39=>0x411d3c).(0=>1)   INC_R : addi   rsi, rsi, 0x1
 PCState: (0x411d3c=>0x411d3f).(0=>1)   INC_R : addi   r8, r8, 0x1
 PCState: (0x411d3f=>0x411d41).(0=>1)   JNZ_I : rdip   t1, %ctrl153, 
 PCState: (0x411d3f=>0x411d41).(1=>2)   JNZ_I : limm   t2, 0xffffffffffffffef
 PCState: (0x411d3f=>0x411d41).(2=>3)   JNZ_I : wrip   , t1, t2
 PCState: (0x411d41=>0x411d45).(0=>1)   NOP   
 PCState: (0x411d45=>0x411d49).(0=>1)   NOP   
 PCState: (0x411d49=>0x411d4d).(0=>1)   NOP   
 PCState: (0x411d4d=>0x411d50).(0=>1)   NOP   
 PCState: (0x411d50=>0x411d53).(0=>1)   MOV_R_M : ld   rax, DS:[rsi]
 PCState: (0x411d53=>0x411d5d).(0=>1)   MOV_R_I : limm   rcx, 0xfefefefefefefeff
 PCState: (0x411d5d=>0x411d60).(0=>1)   MOV_R_R : mov   r8, r8, rcx
 PCState: (0x411d60=>0x411d63).(0=>1)   ADD_R_R : add   r8, r8, rax
 PCState: (0x411d63=>0x411d69).(0=>1)   JNB_I : rdip   t1, %ctrl153, 
 PCState: (0x411d63=>0x411d69).(1=>2)   JNB_I : limm   t2, 0x307
 PCState: (0x411d63=>0x411d69).(2=>3)   JNB_I : wrip   , t1, t2
 PCState: (0x411d69=>0x411d6c).(0=>1)   XOR_R_R : xor   r8, r8, rax
 PCState: (0x411d6c=>0x411d6f).(0=>1)   OR_R_R : or   r8, r8, rcx
 PCState: (0x411d6f=>0x411d72).(0=>1)   INC_R : addi   r8, r8, 0x1
 PCState: (0x411d72=>0x411d78).(0=>1)   JNZ_I : rdip   t1, %ctrl153, 
 PCState: (0x411d72=>0x411d78).(1=>2)   JNZ_I : limm   t2, 0x2f8
 PCState: (0x411d72=>0x412070).(2=>3)   JNZ_I : wrip   , t1, t2
 PCState: (0x412070=>0x412072).(0=>1)   TEST_R_R : and   t0b, al, al
 PCState: (0x412072=>0x412074).(0=>1)   JZ_I : rdip   t1, %ctrl153, 
 PCState: (0x412072=>0x412074).(1=>2)   JZ_I : limm   t2, 0x2c
 PCState: (0x412072=>0x4120a0).(2=>3)   JZ_I : wrip   , t1, t2
 PCState: (0x4120a0=>0x4120a4).(0=>1)   LEA_R_M : lea   rax, DS:[rsi + rdi]
 PCState: (0x4120a4=>0x4120a5).(0=>1)   RET_NEAR : ld   t1, SS:[rsp]
 PCState: (0x4120a4=>0x4120a5).(1=>2)   RET_NEAR : addi   rsp, rsp, 0x8
 PCState: (0x4120a4=>0x41a345).(2=>3)   RET_NEAR : wripi   , t1, 0
 PCState: (0x41a345=>0x41a34c).(0=>1)   MOV_R_P : rdip   t7, %ctrl153, 
 PCState: (0x41a345=>0x41a34c).(1=>2)   MOV_R_P : ld   rdx, DS:[t7 + 0x178aac]
 PCState: (0x41a34c=>0x41a34f).(0=>1)   MOV_R_R : mov   r14, r14, rax
 PCState: (0x41a34f=>0x41a352).(0=>1)   TEST_R_R : and   t0, rdx, rdx
 PCState: (0x41a352=>0x41a354).(0=>1)   JZ_I : rdip   t1, %ctrl153, 
 PCState: (0x41a352=>0x41a354).(1=>2)   JZ_I : limm   t2, 0x9
 PCState: (0x41a352=>0x41a354).(2=>3)   JZ_I : wrip   , t1, t2
 PCState: (0x41a354=>0x41a359).(0=>1)   MOVZX_B_R_M : ld   t1b, DS:[r12]
 PCState: (0x41a354=>0x41a359).(1=>2)   MOVZX_B_R_M : zexti   eax, t1d, 0x7
 PCState: (0x41a359=>0x41a35b).(0=>1)   TEST_R_R : and   t0b, al, al
 PCState: (0x41a35b=>0x41a35d).(0=>1)   JNZ_I : rdip   t1, %ctrl153, 
 PCState: (0x41a35b=>0x41a35d).(1=>2)   JNZ_I : limm   t2, 0x23
 PCState: (0x41a35b=>0x41a380).(2=>3)   JNZ_I : wrip   , t1, t2
 PCState: (0x41a380=>0x41a386).(0=>1)   CMP_M_I : limm   t2b, 0
 PCState: (0x41a380=>0x41a386).(1=>2)   CMP_M_I : ld   t1b, DS:[r12 + 0x1]
 PCState: (0x41a380=>0x41a386).(2=>3)   CMP_M_I : sub   t0b, t1b, t2b
 PCState: (0x41a386=>0x41a388).(0=>1)   JNZ_I : rdip   t1, %ctrl153, 
 PCState: (0x41a386=>0x41a388).(1=>2)   JNZ_I : limm   t2, 0x2e
 PCState: (0x41a386=>0x41a3b6).(2=>3)   JNZ_I : wrip   , t1, t2
 PCState: (0x41a3b6=>0x41a3b9).(0=>1)   MOV_R_M : ld   rax, DS:[rdx]
 PCState: (0x41a3b9=>0x41a3be).(0=>1)   MOVZX_W_R_M : ld   t1w, DS:[r12]
 PCState: (0x41a3b9=>0x41a3be).(1=>2)   MOVZX_W_R_M : zexti   r13d, t1d, 0xf
 PCState: (0x41a3be=>0x41a3c2).(0=>1)   SUB_R_I : limm   t1, 0x2
 PCState: (0x41a3be=>0x41a3c2).(1=>2)   SUB_R_I : sub   r14, r14, t1
 PCState: (0x41a3c2=>0x41a3c6).(0=>1)   ADD_R_I : limm   t1, 0x2
 PCState: (0x41a3c2=>0x41a3c6).(1=>2)   ADD_R_I : add   r12, r12, t1
 PCState: (0x41a3c6=>0x41a3c9).(0=>1)   MOV_R_R : mov   rbp, rbp, rdx
 PCState: (0x41a3c9=>0x41a3cc).(0=>1)   TEST_R_R : and   t0, rax, rax
 PCState: (0x41a3cc=>0x41a3ce).(0=>1)   JZ_I : rdip   t1, %ctrl153, 
 PCState: (0x41a3cc=>0x41a3ce).(1=>2)   JZ_I : limm   t2, 0xffffffffffffff8f
 PCState: (0x41a3cc=>0x41a35d).(2=>3)   JZ_I : wrip   , t1, t2
 PCState: (0x41a35d=>0x41a35f).(0=>1)   XOR_R_R : xor   eax, eax, eax
 PCState: (0x41a35f=>0x41a363).(0=>1)   MOV_R_M : ld   rbx, SS:[rsp]
 PCState: (0x41a363=>0x41a368).(0=>1)   MOV_R_M : ld   rbp, DS:[rsp + 0x8]
 PCState: (0x41a368=>0x41a36d).(0=>1)   MOV_R_M : ld   r12, DS:[rsp + 0x10]
 PCState: (0x41a36d=>0x41a372).(0=>1)   MOV_R_M : ld   r13, DS:[rsp + 0x18]
 PCState: (0x41a372=>0x41a377).(0=>1)   MOV_R_M : ld   r14, DS:[rsp + 0x20]
 PCState: (0x41a377=>0x41a37b).(0=>1)   ADD_R_I : limm   t1, 0x28
 PCState: (0x41a377=>0x41a37b).(1=>2)   ADD_R_I : add   rsp, rsp, t1
 PCState: (0x41a37b=>0x41a37c).(0=>1)   RET_NEAR : ld   t1, SS:[rsp]
 PCState: (0x41a37b=>0x41a37c).(1=>2)   RET_NEAR : addi   rsp, rsp, 0x8
 PCState: (0x41a37b=>0x415cb3).(2=>3)   RET_NEAR : wripi   , t1, 0
 PCState: (0x415cb3=>0x415cb6).(0=>1)   TEST_R_R : and   t0, rax, rax
 PCState: (0x415cb6=>0x415cbb).(0=>1)   MOV_R_I : limm   edi, 0x45ed51
 PCState: (0x415cbb=>0x415cbf).(0=>1)   CMOVZ_R_R : mov   rax, rax, rax
 PCState: (0x415cbb=>0x415cbf).(1=>2)   CMOVZ_R_R : mov   rax, rax, rbx
 PCState: (0x415cbf=>0x415cc2).(0=>1)   CMP_M_I : limm   t2b, 0
 PCState: (0x415cbf=>0x415cc2).(1=>2)   CMP_M_I : ld   t1b, DS:[rax]
 PCState: (0x415cbf=>0x415cc2).(2=>3)   CMP_M_I : sub   t0b, t1b, t2b
 PCState: (0x415cc2=>0x415cc5).(0=>1)   SETNZ_R : movi   al, al, 0x1
 PCState: (0x415cc2=>0x415cc5).(1=>2)   SETNZ_R : movi   al, al, 0
 PCState: (0x415cc5=>0x415cc8).(0=>1)   MOVZX_B_R_R : mov   t1b, t1b, al
 PCState: (0x415cc5=>0x415cc8).(1=>2)   MOVZX_B_R_R : zexti   eax, t1d, 0x7
 PCState: (0x415cc8=>0x415cce).(0=>1)   MOV_P_R : rdip   t7d, %ctrl153, 
 PCState: (0x415cc8=>0x415cce).(1=>2)   MOV_P_R : st   eax, DS:[t7 + 0x17d83a]
 PCState: (0x415cce=>0x415cd3).(0=>1)   CALL_NEAR_I : limm   t1, 0x464d
 PCState: (0x415cce=>0x415cd3).(1=>2)   CALL_NEAR_I : rdip   t7, %ctrl153, 
 PCState: (0x415cce=>0x415cd3).(2=>3)   CALL_NEAR_I : stis   t7, SS:[rsp + 0xfffffffffffffff8]
 PCState: (0x415cce=>0x415cd3).(3=>4)   CALL_NEAR_I : subi   rsp, rsp, 0x8
 PCState: (0x415cce=>0x41a320).(4=>5)   CALL_NEAR_I : wrip   , t7, t1
 PCState: (0x41a320=>0x41a325).(0=>1)   MOV_M_R : st   r12, DS:[rsp + 0xffffffffffffffe8]
 PCState: (0x41a325=>0x41a32a).(0=>1)   MOV_M_R : st   r14, DS:[rsp + 0xfffffffffffffff8]
 PCState: (0x41a32a=>0x41a32d).(0=>1)   MOV_R_R : mov   r12, r12, rdi
 PCState: (0x41a32d=>0x41a332).(0=>1)   MOV_M_R : st   rbx, DS:[rsp + 0xffffffffffffffd8]
 PCState: (0x41a332=>0x41a337).(0=>1)   MOV_M_R : st   rbp, DS:[rsp + 0xffffffffffffffe0]
 PCState: (0x41a337=>0x41a33c).(0=>1)   MOV_M_R : st   r13, DS:[rsp + 0xfffffffffffffff0]
 PCState: (0x41a33c=>0x41a340).(0=>1)   SUB_R_I : limm   t1, 0x28
 PCState: (0x41a33c=>0x41a340).(1=>2)   SUB_R_I : sub   rsp, rsp, t1
 PCState: (0x41a340=>0x41a345).(0=>1)   CALL_NEAR_I : limm   t1, 0xffffffffffff79cb
 PCState: (0x41a340=>0x41a345).(1=>2)   CALL_NEAR_I : rdip   t7, %ctrl153, 
 PCState: (0x41a340=>0x41a345).(2=>3)   CALL_NEAR_I : stis   t7, SS:[rsp + 0xfffffffffffffff8]
 PCState: (0x41a340=>0x41a345).(3=>4)   CALL_NEAR_I : subi   rsp, rsp, 0x8
 PCState: (0x41a340=>0x411d10).(4=>5)   CALL_NEAR_I : wrip   , t7, t1
 PCState: (0x411d10=>0x411d13).(0=>1)   MOV_R_R : mov   rsi, rsi, rdi
 PCState: (0x411d13=>0x411d16).(0=>1)   NEG_R : sub   rdi, t0, rdi
 PCState: (0x411d16=>0x411d19).(0=>1)   MOV_R_R : mov   r8, r8, rsi
 PCState: (0x411d19=>0x411d1d).(0=>1)   AND_R_I : limm   t1d, 0x7
 PCState: (0x411d19=>0x411d1d).(1=>2)   AND_R_I : and   r8d, r8d, t1d
 PCState: (0x411d1d=>0x411d1f).(0=>1)   JZ_I : rdip   t1, %ctrl153, 
 PCState: (0x411d1d=>0x411d1f).(1=>2)   JZ_I : limm   t2, 0x31
 PCState: (0x411d1d=>0x411d1f).(2=>3)   JZ_I : wrip   , t1, t2
 PCState: (0x411d1f=>0x411d23).(0=>1)   SUB_R_I : limm   t1, 0x8
 PCState: (0x411d1f=>0x411d23).(1=>2)   SUB_R_I : sub   r8, r8, t1
 PCState: (0x411d23=>0x411d27).(0=>1)   NOP   
 PCState: (0x411d27=>0x411d2a).(0=>1)   NOP   
 PCState: (0x411d2a=>0x411d2d).(0=>1)   NOP   
 PCState: (0x411d2d=>0x411d30).(0=>1)   NOP   
 PCState: (0x411d30=>0x411d33).(0=>1)   CMP_M_I : limm   t2b, 0
 PCState: (0x411d30=>0x411d33).(1=>2)   CMP_M_I : ld   t1b, DS:[rsi]
 PCState: (0x411d30=>0x411d33).(2=>3)   CMP_M_I : sub   t0b, t1b, t2b
 PCState: (0x411d33=>0x411d39).(0=>1)   JZ_I : rdip   t1, %ctrl153, 
 PCState: (0x411d33=>0x411d39).(1=>2)   JZ_I : limm   t2, 0x367
 PCState: (0x411d33=>0x411d39).(2=>3)   JZ_I : wrip   , t1, t2
 PCState: (0x411d39=>0x411d3c).(0=>1)   INC_R : addi   rsi, rsi, 0x1
 PCState: (0x411d3c=>0x411d3f).(0=>1)   INC_R : addi   r8, r8, 0x1
 PCState: (0x411d3f=>0x411d41).(0=>1)   JNZ_I : rdip   t1, %ctrl153, 
 PCState: (0x411d3f=>0x411d41).(1=>2)   JNZ_I : limm   t2, 0xffffffffffffffef
 PCState: (0x411d3f=>0x411d30).(2=>3)   JNZ_I : wrip   , t1, t2
 PCState: (0x411d30=>0x411d33).(0=>1)   CMP_M_I : limm   t2b, 0
 PCState: (0x411d30=>0x411d33).(1=>2)   CMP_M_I : ld   t1b, DS:[rsi]
 PCState: (0x411d30=>0x411d33).(2=>3)   CMP_M_I : sub   t0b, t1b, t2b
 PCState: (0x411d33=>0x411d39).(0=>1)   JZ_I : rdip   t1, %ctrl153, 
 PCState: (0x411d33=>0x411d39).(1=>2)   JZ_I : limm   t2, 0x367
 PCState: (0x411d33=>0x411d39).(2=>3)   JZ_I : wrip   , t1, t2
 PCState: (0x411d39=>0x411d3c).(0=>1)   INC_R : addi   rsi, rsi, 0x1
 PCState: (0x411d3c=>0x411d3f).(0=>1)   INC_R : addi   r8, r8, 0x1
 PCState: (0x411d3f=>0x411d41).(0=>1)   JNZ_I : rdip   t1, %ctrl153, 
 PCState: (0x411d3f=>0x411d41).(1=>2)   JNZ_I : limm   t2, 0xffffffffffffffef
 PCState: (0x411d3f=>0x411d30).(2=>3)   JNZ_I : wrip   , t1, t2
 PCState: (0x411d30=>0x411d33).(0=>1)   CMP_M_I : limm   t2b, 0
 PCState: (0x411d30=>0x411d33).(1=>2)   CMP_M_I : ld   t1b, DS:[rsi]
 PCState: (0x411d30=>0x411d33).(2=>3)   CMP_M_I : sub   t0b, t1b, t2b
 PCState: (0x411d33=>0x411d39).(0=>1)   JZ_I : rdip   t1, %ctrl153, 
 PCState: (0x411d33=>0x411d39).(1=>2)   JZ_I : limm   t2, 0x367
 PCState: (0x411d33=>0x411d39).(2=>3)   JZ_I : wrip   , t1, t2
 PCState: (0x411d39=>0x411d3c).(0=>1)   INC_R : addi   rsi, rsi, 0x1
 PCState: (0x411d3c=>0x411d3f).(0=>1)   INC_R : addi   r8, r8, 0x1
 PCState: (0x411d3f=>0x411d41).(0=>1)   JNZ_I : rdip   t1, %ctrl153, 
 PCState: (0x411d3f=>0x411d41).(1=>2)   JNZ_I : limm   t2, 0xffffffffffffffef
 PCState: (0x411d3f=>0x411d30).(2=>3)   JNZ_I : wrip   , t1, t2
 PCState: (0x411d30=>0x411d33).(0=>1)   CMP_M_I : limm   t2b, 0
 PCState: (0x411d30=>0x411d33).(1=>2)   CMP_M_I : ld   t1b, DS:[rsi]
 PCState: (0x411d30=>0x411d33).(2=>3)   CMP_M_I : sub   t0b, t1b, t2b
 PCState: (0x411d33=>0x411d39).(0=>1)   JZ_I : rdip   t1, %ctrl153, 
 PCState: (0x411d33=>0x411d39).(1=>2)   JZ_I : limm   t2, 0x367
 PCState: (0x411d33=>0x411d39).(2=>3)   JZ_I : wrip   , t1, t2
 PCState: (0x411d39=>0x411d3c).(0=>1)   INC_R : addi   rsi, rsi, 0x1
 PCState: (0x411d3c=>0x411d3f).(0=>1)   INC_R : addi   r8, r8, 0x1
 PCState: (0x411d3f=>0x411d41).(0=>1)   JNZ_I : rdip   t1, %ctrl153, 
 PCState: (0x411d3f=>0x411d41).(1=>2)   JNZ_I : limm   t2, 0xffffffffffffffef
 PCState: (0x411d3f=>0x411d30).(2=>3)   JNZ_I : wrip   , t1, t2
 PCState: (0x411d30=>0x411d33).(0=>1)   CMP_M_I : limm   t2b, 0
 PCState: (0x411d30=>0x411d33).(1=>2)   CMP_M_I : ld   t1b, DS:[rsi]
 PCState: (0x411d30=>0x411d33).(2=>3)   CMP_M_I : sub   t0b, t1b, t2b
 PCState: (0x411d33=>0x411d39).(0=>1)   JZ_I : rdip   t1, %ctrl153, 
 PCState: (0x411d33=>0x411d39).(1=>2)   JZ_I : limm   t2, 0x367
 PCState: (0x411d33=>0x411d39).(2=>3)   JZ_I : wrip   , t1, t2
 PCState: (0x411d39=>0x411d3c).(0=>1)   INC_R : addi   rsi, rsi, 0x1
 PCState: (0x411d3c=>0x411d3f).(0=>1)   INC_R : addi   r8, r8, 0x1
 PCState: (0x411d3f=>0x411d41).(0=>1)   JNZ_I : rdip   t1, %ctrl153, 
 PCState: (0x411d3f=>0x411d41).(1=>2)   JNZ_I : limm   t2, 0xffffffffffffffef
 PCState: (0x411d3f=>0x411d30).(2=>3)   JNZ_I : wrip   , t1, t2
 PCState: (0x411d30=>0x411d33).(0=>1)   CMP_M_I : limm   t2b, 0
 PCState: (0x411d30=>0x411d33).(1=>2)   CMP_M_I : ld   t1b, DS:[rsi]
 PCState: (0x411d30=>0x411d33).(2=>3)   CMP_M_I : sub   t0b, t1b, t2b
 PCState: (0x411d33=>0x411d39).(0=>1)   JZ_I : rdip   t1, %ctrl153, 
 PCState: (0x411d33=>0x411d39).(1=>2)   JZ_I : limm   t2, 0x367
 PCState: (0x411d33=>0x411d39).(2=>3)   JZ_I : wrip   , t1, t2
 PCState: (0x411d39=>0x411d3c).(0=>1)   INC_R : addi   rsi, rsi, 0x1
 PCState: (0x411d3c=>0x411d3f).(0=>1)   INC_R : addi   r8, r8, 0x1
 PCState: (0x411d3f=>0x411d41).(0=>1)   JNZ_I : rdip   t1, %ctrl153, 
 PCState: (0x411d3f=>0x411d41).(1=>2)   JNZ_I : limm   t2, 0xffffffffffffffef
 PCState: (0x411d3f=>0x411d30).(2=>3)   JNZ_I : wrip   , t1, t2
 PCState: (0x411d30=>0x411d33).(0=>1)   CMP_M_I : limm   t2b, 0
 PCState: (0x411d30=>0x411d33).(1=>2)   CMP_M_I : ld   t1b, DS:[rsi]
 PCState: (0x411d30=>0x411d33).(2=>3)   CMP_M_I : sub   t0b, t1b, t2b
 PCState: (0x411d33=>0x411d39).(0=>1)   JZ_I : rdip   t1, %ctrl153, 
 PCState: (0x411d33=>0x411d39).(1=>2)   JZ_I : limm   t2, 0x367
 PCState: (0x411d33=>0x411d39).(2=>3)   JZ_I : wrip   , t1, t2
 PCState: (0x411d39=>0x411d3c).(0=>1)   INC_R : addi   rsi, rsi, 0x1
 PCState: (0x411d3c=>0x411d3f).(0=>1)   INC_R : addi   r8, r8, 0x1
 PCState: (0x411d3f=>0x411d41).(0=>1)   JNZ_I : rdip   t1, %ctrl153, 
 PCState: (0x411d3f=>0x411d41).(1=>2)   JNZ_I : limm   t2, 0xffffffffffffffef
 PCState: (0x411d3f=>0x411d41).(2=>3)   JNZ_I : wrip   , t1, t2
 PCState: (0x411d41=>0x411d45).(0=>1)   NOP   
 PCState: (0x411d45=>0x411d49).(0=>1)   NOP   
 PCState: (0x411d49=>0x411d4d).(0=>1)   NOP   
 PCState: (0x411d4d=>0x411d50).(0=>1)   NOP   
 PCState: (0x411d50=>0x411d53).(0=>1)   MOV_R_M : ld   rax, DS:[rsi]
 PCState: (0x411d53=>0x411d5d).(0=>1)   MOV_R_I : limm   rcx, 0xfefefefefefefeff
 PCState: (0x411d5d=>0x411d60).(0=>1)   MOV_R_R : mov   r8, r8, rcx
 PCState: (0x411d60=>0x411d63).(0=>1)   ADD_R_R : add   r8, r8, rax
 PCState: (0x411d63=>0x411d69).(0=>1)   JNB_I : rdip   t1, %ctrl153, 
 PCState: (0x411d63=>0x411d69).(1=>2)   JNB_I : limm   t2, 0x307
 PCState: (0x411d63=>0x411d69).(2=>3)   JNB_I : wrip   , t1, t2
 PCState: (0x411d69=>0x411d6c).(0=>1)   XOR_R_R : xor   r8, r8, rax
 PCState: (0x411d6c=>0x411d6f).(0=>1)   OR_R_R : or   r8, r8, rcx
 PCState: (0x411d6f=>0x411d72).(0=>1)   INC_R : addi   r8, r8, 0x1
 PCState: (0x411d72=>0x411d78).(0=>1)   JNZ_I : rdip   t1, %ctrl153, 
 PCState: (0x411d72=>0x411d78).(1=>2)   JNZ_I : limm   t2, 0x2f8
 PCState: (0x411d72=>0x411d78).(2=>3)   JNZ_I : wrip   , t1, t2
 PCState: (0x411d78=>0x411d7c).(0=>1)   MOV_R_M : ld   rax, DS:[rsi + 0x8]
 PCState: (0x411d7c=>0x411d80).(0=>1)   LEA_R_M : lea   rsi, DS:[rsi + 0x8]
 PCState: (0x411d80=>0x411d83).(0=>1)   MOV_R_R : mov   r8, r8, rcx
 PCState: (0x411d83=>0x411d86).(0=>1)   ADD_R_R : add   r8, r8, rax
 PCState: (0x411d86=>0x411d8c).(0=>1)   JNB_I : rdip   t1, %ctrl153, 
 PCState: (0x411d86=>0x411d8c).(1=>2)   JNB_I : limm   t2, 0x2e4
 PCState: (0x411d86=>0x411d8c).(2=>3)   JNB_I : wrip   , t1, t2
 PCState: (0x411d8c=>0x411d8f).(0=>1)   XOR_R_R : xor   r8, r8, rax
 PCState: (0x411d8f=>0x411d92).(0=>1)   OR_R_R : or   r8, r8, rcx
 PCState: (0x411d92=>0x411d95).(0=>1)   INC_R : addi   r8, r8, 0x1
 PCState: (0x411d95=>0x411d9b).(0=>1)   JNZ_I : rdip   t1, %ctrl153, 
 PCState: (0x411d95=>0x411d9b).(1=>2)   JNZ_I : limm   t2, 0x2d5
 PCState: (0x411d95=>0x412070).(2=>3)   JNZ_I : wrip   , t1, t2
 PCState: (0x412070=>0x412072).(0=>1)   TEST_R_R : and   t0b, al, al
 PCState: (0x412072=>0x412074).(0=>1)   JZ_I : rdip   t1, %ctrl153, 
 PCState: (0x412072=>0x412074).(1=>2)   JZ_I : limm   t2, 0x2c
 PCState: (0x412072=>0x4120a0).(2=>3)   JZ_I : wrip   , t1, t2
 PCState: (0x4120a0=>0x4120a4).(0=>1)   LEA_R_M : lea   rax, DS:[rsi + rdi]
 PCState: (0x4120a4=>0x4120a5).(0=>1)   RET_NEAR : ld   t1, SS:[rsp]
 PCState: (0x4120a4=>0x4120a5).(1=>2)   RET_NEAR : addi   rsp, rsp, 0x8
 PCState: (0x4120a4=>0x41a345).(2=>3)   RET_NEAR : wripi   , t1, 0
[...]
 PCState: (0x40c01f=>0x40c021).(0=>1)   JNZ_I : rdip   t1, %ctrl153, 
 PCState: (0x40c01f=>0x40c021).(1=>2)   JNZ_I : limm   t2, 0x1f
 PCState: (0x40c01f=>0x40c040).(2=>3)   JNZ_I : wrip   , t1, t2
 PCState: (0x40c040=>0x40c047).(0=>1)   MOV_R_M : ld   rax, DS:[rbx + 0xd8]
 PCState: (0x40c047=>0x40c049).(0=>1)   XOR_R_R : xor   edx, edx, edx
 PCState: (0x40c049=>0x40c04b).(0=>1)   XOR_R_R : xor   esi, esi, esi
 PCState: (0x40c04b=>0x40c04e).(0=>1)   MOV_R_R : mov   rdi, rdi, rbx
 PCState: (0x40c04e=>0x40c051).(0=>1)   CALL_NEAR_M : rdip   t7, %ctrl153, 
 PCState: (0x40c04e=>0x40c051).(1=>2)   CALL_NEAR_M : ld   t1, DS:[rax + 0x58]
 PCState: (0x40c04e=>0x40c051).(2=>3)   CALL_NEAR_M : st   t7, SS:[rsp + 0xfffffffffffffff8]
 PCState: (0x40c04e=>0x40c051).(3=>4)   CALL_NEAR_M : subi   rsp, rsp, 0x8
 PCState: (0x40c04e=>0x427cd0).(4=>5)   CALL_NEAR_M : wripi   , t1, 0
 PCState: (0x427cd0=>0x427cd1).(0=>1)   PUSH_R : stis   rbx, SS:[rsp + 0xfffffffffffffff8]
 PCState: (0x427cd0=>0x427cd1).(1=>2)   PUSH_R : subi   rsp, rsp, 0x8
 PCState: (0x427cd1=>0x427cd4).(0=>1)   MOV_R_R : mov   rbx, rbx, rdi
 PCState: (0x427cd4=>0x427cd9).(0=>1)   CALL_NEAR_I : limm   t1, 0xfffffffffffe3c17
 PCState: (0x427cd4=>0x427cd9).(1=>2)   CALL_NEAR_I : rdip   t7, %ctrl153, 
 PCState: (0x427cd4=>0x427cd9).(2=>3)   CALL_NEAR_I : stis   t7, SS:[rsp + 0xfffffffffffffff8]
 PCState: (0x427cd4=>0x427cd9).(3=>4)   CALL_NEAR_I : subi   rsp, rsp, 0x8
 PCState: (0x427cd4=>0x40b8f0).(4=>5)   CALL_NEAR_I : wrip   , t7, t1
 PCState: (0x40b8f0=>0x40b8f5).(0=>1)   MOV_M_R : st   rbx, DS:[rsp + 0xffffffffffffffe8]
 PCState: (0x40b8f5=>0x40b8fa).(0=>1)   MOV_M_R : st   rbp, DS:[rsp + 0xfffffffffffffff0]
 PCState: (0x40b8fa=>0x40b8fd).(0=>1)   MOV_R_R : mov   rbx, rbx, rdi
 PCState: (0x40b8fd=>0x40b902).(0=>1)   MOV_M_R : st   r12, DS:[rsp + 0xfffffffffffffff8]
 PCState: (0x40b902=>0x40b906).(0=>1)   SUB_R_I : limm   t1, 0x18
 PCState: (0x40b902=>0x40b906).(1=>2)   SUB_R_I : sub   rsp, rsp, t1
 PCState: (0x40b906=>0x40b90d).(0=>1)   MOV_R_M : ld   rax, DS:[rdi + 0xd8]
 PCState: (0x40b90d=>0x40b910).(0=>1)   MOV_R_R : mov   r12, r12, rdx
 PCState: (0x40b910=>0x40b913).(0=>1)   MOV_R_R : mov   rbp, rbp, rsi
 PCState: (0x40b913=>0x40b916).(0=>1)   CALL_NEAR_M : rdip   t7, %ctrl153, 
 PCState: (0x40b913=>0x40b916).(1=>2)   CALL_NEAR_M : ld   t1, DS:[rax + 0x60]
 PCState: (0x40b913=>0x40b916).(2=>3)   CALL_NEAR_M : st   t7, SS:[rsp + 0xfffffffffffffff8]
 PCState: (0x40b913=>0x40b916).(3=>4)   CALL_NEAR_M : subi   rsp, rsp, 0x8
 PCState: (0x40b913=>0x428c10).(4=>5)   CALL_NEAR_M : wripi   , t1, 0
 PCState: (0x428c10=>0x428c15).(0=>1)   MOV_M_R : st   rbx, DS:[rsp + 0xffffffffffffffe8]
 PCState: (0x428c15=>0x428c1a).(0=>1)   MOV_M_R : st   r12, DS:[rsp + 0xfffffffffffffff8]
 PCState: (0x428c1a=>0x428c1d).(0=>1)   XOR_R_R : xor   r12d, r12d, r12d
 PCState: (0x428c1d=>0x428c22).(0=>1)   MOV_M_R : st   rbp, DS:[rsp + 0xfffffffffffffff0]
 PCState: (0x428c22=>0x428c26).(0=>1)   SUB_R_I : limm   t1, 0x18
 PCState: (0x428c22=>0x428c26).(1=>2)   SUB_R_I : sub   rsp, rsp, t1
 PCState: (0x428c26=>0x428c2a).(0=>1)   MOV_R_M : ld   rdx, DS:[rdi + 0x28]
 PCState: (0x428c2a=>0x428c2e).(0=>1)   MOV_R_M : ld   rsi, DS:[rdi + 0x20]
 PCState: (0x428c2e=>0x428c31).(0=>1)   MOV_R_R : mov   rbx, rbx, rdi
 PCState: (0x428c31=>0x428c34).(0=>1)   CMP_R_R : sub   t0, rdx, rsi
 PCState: (0x428c34=>0x428c36).(0=>1)   JBE_I : rdip   t1, %ctrl153, 
 PCState: (0x428c34=>0x428c36).(1=>2)   JBE_I : limm   t2, 0x4a
 PCState: (0x428c34=>0x428c80).(2=>3)   JBE_I : wrip   , t1, t2
 PCState: (0x428c80=>0x428c84).(0=>1)   MOV_R_M : ld   rax, DS:[rbx + 0x8]
 PCState: (0x428c84=>0x428c87).(0=>1)   MOV_R_R : mov   rsi, rsi, rax
 PCState: (0x428c87=>0x428c8b).(0=>1)   SUB_R_M : ld   t1, DS:[rbx + 0x10]
 PCState: (0x428c87=>0x428c8b).(1=>2)   SUB_R_M : sub   rsi, rsi, t1
 PCState: (0x428c8b=>0x428c8d).(0=>1)   JNZ_I : rdip   t1, %ctrl153, 
 PCState: (0x428c8b=>0x428c8d).(1=>2)   JNZ_I : limm   t2, 0x23
 PCState: (0x428c8b=>0x428c8d).(2=>3)   JNZ_I : wrip   , t1, t2
 PCState: (0x428c8d=>0x428c98).(0=>1)   MOV_M_I : limm   t1, 0xffffffffffffffff
 PCState: (0x428c8d=>0x428c98).(1=>2)   MOV_M_I : st   t1, DS:[rbx + 0x90]
 PCState: (0x428c98=>0x428c9b).(0=>1)   MOV_R_R : mov   eax, eax, r12d
 PCState: (0x428c9b=>0x428c9f).(0=>1)   MOV_R_M : ld   rbx, SS:[rsp]
 PCState: (0x428c9f=>0x428ca4).(0=>1)   MOV_R_M : ld   rbp, DS:[rsp + 0x8]
 PCState: (0x428ca4=>0x428ca9).(0=>1)   MOV_R_M : ld   r12, DS:[rsp + 0x10]
 PCState: (0x428ca9=>0x428cad).(0=>1)   ADD_R_I : limm   t1, 0x18
 PCState: (0x428ca9=>0x428cad).(1=>2)   ADD_R_I : add   rsp, rsp, t1
 PCState: (0x428cad=>0x428cae).(0=>1)   RET_NEAR : ld   t1, SS:[rsp]
 PCState: (0x428cad=>0x428cae).(1=>2)   RET_NEAR : addi   rsp, rsp, 0x8
 PCState: (0x428cad=>0x40b916).(2=>3)   RET_NEAR : wripi   , t1, 0
 PCState: (0x40b916=>0x40b918).(0=>1)   XOR_R_R : xor   edx, edx, edx
 PCState: (0x40b918=>0x40b91a).(0=>1)   INC_R : addi   eax, eax, 0x1
 PCState: (0x40b91a=>0x40b91c).(0=>1)   JZ_I : rdip   t1, %ctrl153, 
 PCState: (0x40b91a=>0x40b91c).(1=>2)   JZ_I : limm   t2, 0x5a
 PCState: (0x40b91a=>0x40b91c).(2=>3)   JZ_I : wrip   , t1, t2
 PCState: (0x40b91c=>0x40b91f).(0=>1)   TEST_R_R : and   t0, rbp, rbp
 PCState: (0x40b91f=>0x40b922).(0=>1)   SETZ_R : movi   dl, dl, 0x1
 PCState: (0x40b91f=>0x40b922).(1=>2)   SETZ_R : movi   dl, dl, 0
 PCState: (0x40b922=>0x40b925).(0=>1)   TEST_R_R : and   t0, r12, r12
 PCState: (0x40b925=>0x40b928).(0=>1)   SETZ_R : movi   al, al, 0x1
 PCState: (0x40b925=>0x40b928).(1=>2)   SETZ_R : movi   al, al, 0
 PCState: (0x40b928=>0x40b92a).(0=>1)   OR_R_R : or   eax, eax, edx
 PCState: (0x40b92a=>0x40b92c).(0=>1)   TEST_R_I : limm   t1b, 0x1
 PCState: (0x40b92a=>0x40b92c).(1=>2)   TEST_R_I : and   t0b, al, t1b
 PCState: (0x40b92c=>0x40b92e).(0=>1)   JNZ_I : rdip   t1, %ctrl153, 
 PCState: (0x40b92c=>0x40b92e).(1=>2)   JNZ_I : limm   t2, 0x62
 PCState: (0x40b92c=>0x40b990).(2=>3)   JNZ_I : wrip   , t1, t2
 PCState: (0x40b990=>0x40b993).(0=>1)   OR_M_I : limm   t2d, 0x2
 PCState: (0x40b990=>0x40b993).(1=>2)   OR_M_I : ldst   t1d, DS:[rbx]
 PCState: (0x40b990=>0x40b993).(2=>3)   OR_M_I : or   t1d, t1d, t2d
 PCState: (0x40b990=>0x40b993).(3=>4)   OR_M_I : st   t1d, DS:[rbx]
 PCState: (0x40b993=>0x40b99a).(0=>1)   LEA_R_M : lea   rdx, DS:[rbx + 0x84]
 PCState: (0x40b99a=>0x40b9a1).(0=>1)   LEA_R_M : lea   rsi, DS:[rbx + 0x83]
 PCState: (0x40b9a1=>0x40b9a3).(0=>1)   XOR_R_R : xor   ecx, ecx, ecx
 PCState: (0x40b9a3=>0x40b9a5).(0=>1)   JMP_I : rdip   t1, %ctrl153, 
 PCState: (0x40b9a3=>0x40b9a5).(1=>2)   JMP_I : limm   t2, 0xffffffffffffff96
 PCState: (0x40b9a3=>0x40b93b).(2=>3)   JMP_I : wrip   , t1, t2
 PCState: (0x40b93b=>0x40b93e).(0=>1)   MOV_R_R : mov   rdi, rdi, rbx
 PCState: (0x40b93e=>0x40b943).(0=>1)   CALL_NEAR_I : limm   t1, 0xfffffffffffffd2d
 PCState: (0x40b93e=>0x40b943).(1=>2)   CALL_NEAR_I : rdip   t7, %ctrl153, 
 PCState: (0x40b93e=>0x40b943).(2=>3)   CALL_NEAR_I : stis   t7, SS:[rsp + 0xfffffffffffffff8]
 PCState: (0x40b93e=>0x40b943).(3=>4)   CALL_NEAR_I : subi   rsp, rsp, 0x8
 PCState: (0x40b93e=>0x40b670).(4=>5)   CALL_NEAR_I : wrip   , t7, t1
 PCState: (0x40b670=>0x40b675).(0=>1)   MOV_M_R : st   rbx, DS:[rsp + 0xffffffffffffffe0]
 PCState: (0x40b675=>0x40b67a).(0=>1)   MOV_M_R : st   rbp, DS:[rsp + 0xffffffffffffffe8]
 PCState: (0x40b67a=>0x40b67d).(0=>1)   MOV_R_R : mov   rbx, rbx, rdi
 PCState: (0x40b67d=>0x40b682).(0=>1)   MOV_M_R : st   r12, DS:[rsp + 0xfffffffffffffff0]
 PCState: (0x40b682=>0x40b687).(0=>1)   MOV_M_R : st   r13, DS:[rsp + 0xfffffffffffffff8]
 PCState: (0x40b687=>0x40b68b).(0=>1)   SUB_R_I : limm   t1, 0x28
 PCState: (0x40b687=>0x40b68b).(1=>2)   SUB_R_I : sub   rsp, rsp, t1
 PCState: (0x40b68b=>0x40b68f).(0=>1)   MOV_R_M : ld   rdi, DS:[rdi + 0x38]
 PCState: (0x40b68f=>0x40b692).(0=>1)   MOV_R_R : mov   rbp, rbp, rsi
 PCState: (0x40b692=>0x40b695).(0=>1)   MOV_R_R : mov   r12, r12, rdx
 PCState: (0x40b695=>0x40b698).(0=>1)   MOV_R_R : mov   r13d, r13d, ecx
 PCState: (0x40b698=>0x40b69b).(0=>1)   TEST_R_R : and   t0, rdi, rdi
 PCState: (0x40b69b=>0x40b69d).(0=>1)   JZ_I : rdip   t1, %ctrl153, 
 PCState: (0x40b69b=>0x40b69d).(1=>2)   JZ_I : limm   t2, 0x23
 PCState: (0x40b69b=>0x40b69d).(2=>3)   JZ_I : wrip   , t1, t2
 PCState: (0x40b69d=>0x40b69f).(0=>1)   MOV_R_M : ld   eax, DS:[rbx]
 PCState: (0x40b69f=>0x40b6a1).(0=>1)   TEST_R_I : limm   t1b, 0x1
 PCState: (0x40b69f=>0x40b6a1).(1=>2)   TEST_R_I : and   t0b, al, t1b
 PCState: (0x40b6a1=>0x40b6a3).(0=>1)   JNZ_I : rdip   t1, %ctrl153, 
 PCState: (0x40b6a1=>0x40b6a3).(1=>2)   JNZ_I : limm   t2, 0x1f
 PCState: (0x40b6a1=>0x40b6a3).(2=>3)   JNZ_I : wrip   , t1, t2
 PCState: (0x40b6a3=>0x40b6a7).(0=>1)   MOV_R_M : ld   rsi, DS:[rbx + 0x40]
 PCState: (0x40b6a7=>0x40b6aa).(0=>1)   SUB_R_R : sub   rsi, rsi, rdi
 PCState: (0x40b6aa=>0x40b6b1).(0=>1)   ADD_R_I : limm   t1, 0xfff
 PCState: (0x40b6aa=>0x40b6b1).(1=>2)   ADD_R_I : add   rsi, rsi, t1
 PCState: (0x40b6b1=>0x40b6b8).(0=>1)   AND_R_I : limm   t1, 0xfffffffffffff000
 PCState: (0x40b6b1=>0x40b6b8).(1=>2)   AND_R_I : and   rsi, rsi, t1
 PCState: (0x40b6b8=>0x40b6bd).(0=>1)   CALL_NEAR_I : limm   t1, 0x8a73
 PCState: (0x40b6b8=>0x40b6bd).(1=>2)   CALL_NEAR_I : rdip   t7, %ctrl153, 
 PCState: (0x40b6b8=>0x40b6bd).(2=>3)   CALL_NEAR_I : stis   t7, SS:[rsp + 0xfffffffffffffff8]
 PCState: (0x40b6b8=>0x40b6bd).(3=>4)   CALL_NEAR_I : subi   rsp, rsp, 0x8
 PCState: (0x40b6b8=>0x414130).(4=>5)   CALL_NEAR_I : wrip   , t7, t1
 PCState: (0x414130=>0x414137).(0=>1)   MOV_R_I : limm   rax, 0xb
 PCState: (0x414137=>0x414139).(0=>1)   syscall    eax
 PCState: (0x414139=>0x41413f).(0=>1)   CMP_R_I : limm   t1, 0xfffffffffffff001
 PCState: (0x414139=>0x41413f).(1=>2)   CMP_R_I : sub   t0, rax, t1
 PCState: (0x41413f=>0x414145).(0=>1)   JNB_I : rdip   t1, %ctrl153, 
 PCState: (0x41413f=>0x414145).(1=>2)   JNB_I : limm   t2, 0x214b
 PCState: (0x41413f=>0x414145).(2=>3)   JNB_I : wrip   , t1, t2
 PCState: (0x414145=>0x414146).(0=>1)   RET_NEAR : ld   t1, SS:[rsp]
 PCState: (0x414145=>0x414146).(1=>2)   RET_NEAR : addi   rsp, rsp, 0x8
 PCState: (0x414145=>0x40b6bd).(2=>3)   RET_NEAR : wripi   , t1, 0
 PCState: (0x40b6bd=>0x40b6c0).(0=>1)   NOP   
 PCState: (0x40b6c0=>0x40b6c2).(0=>1)   MOV_R_M : ld   eax, DS:[rbx]
 PCState: (0x40b6c2=>0x40b6c5).(0=>1)   TEST_R_R : and   t0d, r13d, r13d
 PCState: (0x40b6c5=>0x40b6c9).(0=>1)   MOV_M_R : st   rbp, DS:[rbx + 0x38]
 PCState: (0x40b6c9=>0x40b6cd).(0=>1)   MOV_M_R : st   r12, DS:[rbx + 0x40]
 PCState: (0x40b6cd=>0x40b6cf).(0=>1)   JZ_I : rdip   t1, %ctrl153, 
 PCState: (0x40b6cd=>0x40b6cf).(1=>2)   JZ_I : limm   t2, 0x21
 PCState: (0x40b6cd=>0x40b6f0).(2=>3)   JZ_I : wrip   , t1, t2
 PCState: (0x40b6f0=>0x40b6f3).(0=>1)   OR_R_I : limm   t1d, 0x1
 PCState: (0x40b6f0=>0x40b6f3).(1=>2)   OR_R_I : or   eax, eax, t1d
 PCState: (0x40b6f3=>0x40b6f5).(0=>1)   MOV_M_R : st   eax, DS:[rbx]
 PCState: (0x40b6f5=>0x40b6fa).(0=>1)   MOV_R_M : ld   rbx, DS:[rsp + 0x8]
 PCState: (0x40b6fa=>0x40b6ff).(0=>1)   MOV_R_M : ld   rbp, DS:[rsp + 0x10]
 PCState: (0x40b6ff=>0x40b704).(0=>1)   MOV_R_M : ld   r12, DS:[rsp + 0x18]
 PCState: (0x40b704=>0x40b709).(0=>1)   MOV_R_M : ld   r13, DS:[rsp + 0x20]
 PCState: (0x40b709=>0x40b70d).(0=>1)   ADD_R_I : limm   t1, 0x28
 PCState: (0x40b709=>0x40b70d).(1=>2)   ADD_R_I : add   rsp, rsp, t1
 PCState: (0x40b70d=>0x40b70e).(0=>1)   RET_NEAR : ld   t1, SS:[rsp]
 PCState: (0x40b70d=>0x40b70e).(1=>2)   RET_NEAR : addi   rsp, rsp, 0x8
 PCState: (0x40b70d=>0x40b943).(2=>3)   RET_NEAR : wripi   , t1, 0
 PCState: (0x40b943=>0x40b94b).(0=>1)   MOV_M_I : limm   t1, 0
 PCState: (0x40b943=>0x40b94b).(1=>2)   MOV_M_I : st   t1, DS:[rbx + 0x30]
 PCState: (0x40b94b=>0x40b953).(0=>1)   MOV_M_I : limm   t1, 0
 PCState: (0x40b94b=>0x40b953).(1=>2)   MOV_M_I : st   t1, DS:[rbx + 0x28]
 PCState: (0x40b953=>0x40b956).(0=>1)   MOV_R_R : mov   rdx, rdx, rbx
 PCState: (0x40b956=>0x40b95e).(0=>1)   MOV_M_I : limm   t1, 0
 PCState: (0x40b956=>0x40b95e).(1=>2)   MOV_M_I : st   t1, DS:[rbx + 0x20]
 PCState: (0x40b95e=>0x40b966).(0=>1)   MOV_M_I : limm   t1, 0
 PCState: (0x40b95e=>0x40b966).(1=>2)   MOV_M_I : st   t1, DS:[rbx + 0x10]
 PCState: (0x40b966=>0x40b96e).(0=>1)   MOV_M_I : limm   t1, 0
 PCState: (0x40b966=>0x40b96e).(1=>2)   MOV_M_I : st   t1, DS:[rbx + 0x8]
 PCState: (0x40b96e=>0x40b976).(0=>1)   MOV_M_I : limm   t1, 0
 PCState: (0x40b96e=>0x40b976).(1=>2)   MOV_M_I : st   t1, DS:[rbx + 0x18]
 PCState: (0x40b976=>0x40b97a).(0=>1)   MOV_R_M : ld   rbx, SS:[rsp]
 PCState: (0x40b97a=>0x40b97f).(0=>1)   MOV_R_M : ld   rbp, DS:[rsp + 0x8]
 PCState: (0x40b97f=>0x40b982).(0=>1)   MOV_R_R : mov   rax, rax, rdx
 PCState: (0x40b982=>0x40b987).(0=>1)   MOV_R_M : ld   r12, DS:[rsp + 0x10]
 PCState: (0x40b987=>0x40b98b).(0=>1)   ADD_R_I : limm   t1, 0x18
 PCState: (0x40b987=>0x40b98b).(1=>2)   ADD_R_I : add   rsp, rsp, t1
 PCState: (0x40b98b=>0x40b98c).(0=>1)   RET_NEAR : ld   t1, SS:[rsp]
 PCState: (0x40b98b=>0x40b98c).(1=>2)   RET_NEAR : addi   rsp, rsp, 0x8
 PCState: (0x40b98b=>0x427cd9).(2=>3)   RET_NEAR : wripi   , t1, 0
 PCState: (0x427cd9=>0x427cdb).(0=>1)   XOR_R_R : xor   edx, edx, edx
 PCState: (0x427cdb=>0x427cde).(0=>1)   TEST_R_R : and   t0, rax, rax
 PCState: (0x427cde=>0x427ce0).(0=>1)   JZ_I : rdip   t1, %ctrl153, 
 PCState: (0x427cde=>0x427ce0).(1=>2)   JZ_I : limm   t2, 0x1f
 PCState: (0x427cde=>0x427ce0).(2=>3)   JZ_I : wrip   , t1, t2
 PCState: (0x427ce0=>0x427ce4).(0=>1)   MOV_R_M : ld   rax, DS:[rbx + 0x38]
 PCState: (0x427ce4=>0x427ce7).(0=>1)   MOV_R_R : mov   rdx, rdx, rbx
 PCState: (0x427ce7=>0x427ceb).(0=>1)   MOV_M_R : st   rax, DS:[rbx + 0x30]
 PCState: (0x427ceb=>0x427cef).(0=>1)   MOV_M_R : st   rax, DS:[rbx + 0x28]
 PCState: (0x427cef=>0x427cf3).(0=>1)   MOV_M_R : st   rax, DS:[rbx + 0x20]
 PCState: (0x427cf3=>0x427cf7).(0=>1)   MOV_M_R : st   rax, DS:[rbx + 0x18]
 PCState: (0x427cf7=>0x427cfb).(0=>1)   MOV_M_R : st   rax, DS:[rbx + 0x8]
 PCState: (0x427cfb=>0x427cff).(0=>1)   MOV_M_R : st   rax, DS:[rbx + 0x10]
 PCState: (0x427cff=>0x427d00).(0=>1)   POP_R : ldis   t1, SS:[rsp]
 PCState: (0x427cff=>0x427d00).(1=>2)   POP_R : addi   rsp, rsp, 0x8
 PCState: (0x427cff=>0x427d00).(2=>3)   POP_R : mov   rbx, rbx, t1
 PCState: (0x427d00=>0x427d03).(0=>1)   MOV_R_R : mov   rax, rax, rdx
 PCState: (0x427d03=>0x427d04).(0=>1)   RET_NEAR : ld   t1, SS:[rsp]
 PCState: (0x427d03=>0x427d04).(1=>2)   RET_NEAR : addi   rsp, rsp, 0x8
 PCState: (0x427d03=>0x40c051).(2=>3)   RET_NEAR : wripi   , t1, 0
 PCState: (0x40c051=>0x40c053).(0=>1)   JMP_I : rdip   t1, %ctrl153, 
 PCState: (0x40c051=>0x40c053).(1=>2)   JMP_I : limm   t2, 0xffffffffffffffce
 PCState: (0x40c051=>0x40c021).(2=>3)   JMP_I : wrip   , t1, t2
 PCState: (0x40c021=>0x40c02b).(0=>1)   MOV_M_I : limm   t1d, 0xffffffffffffffff
 PCState: (0x40c021=>0x40c02b).(1=>2)   MOV_M_I : st   t1d, DS:[rbx + 0xa8]
 PCState: (0x40c02b=>0x40c02f).(0=>1)   MOV_R_M : ld   rbx, DS:[rbx + 0x68]
 PCState: (0x40c02f=>0x40c032).(0=>1)   TEST_R_R : and   t0, rbx, rbx
 PCState: (0x40c032=>0x40c034).(0=>1)   JNZ_I : rdip   t1, %ctrl153, 
 PCState: (0x40c032=>0x40c034).(1=>2)   JNZ_I : limm   t2, 0xffffffffffffffd4
 PCState: (0x40c032=>0x40c008).(2=>3)   JNZ_I : wrip   , t1, t2
 PCState: (0x40c008=>0x40c00a).(0=>1)   MOV_R_M : ld   eax, DS:[rbx]
 PCState: (0x40c00a=>0x40c00c).(0=>1)   TEST_R_I : limm   t1b, 0x2
 PCState: (0x40c00a=>0x40c00c).(1=>2)   TEST_R_I : and   t0b, al, t1b
 PCState: (0x40c00c=>0x40c00e).(0=>1)   JNZ_I : rdip   t1, %ctrl153, 
 PCState: (0x40c00c=>0x40c00e).(1=>2)   JNZ_I : limm   t2, 0x13
 PCState: (0x40c00c=>0x40c00e).(2=>3)   JNZ_I : wrip   , t1, t2
 PCState: (0x40c00e=>0x40c010).(0=>1)   TEST_R_I : limm   t1b, 0x8
 PCState: (0x40c00e=>0x40c010).(1=>2)   TEST_R_I : and   t0b, al, t1b
 PCState: (0x40c010=>0x40c012).(0=>1)   JZ_I : rdip   t1, %ctrl153, 
 PCState: (0x40c010=>0x40c012).(1=>2)   JZ_I : limm   t2, 0x5
 PCState: (0x40c010=>0x40c012).(2=>3)   JZ_I : wrip   , t1, t2
 PCState: (0x40c012=>0x40c015).(0=>1)   TEST_R_I : limm   t1b, 0x10
 PCState: (0x40c012=>0x40c015).(1=>2)   TEST_R_I : and   t0b, ah, t1b
 PCState: (0x40c015=>0x40c017).(0=>1)   JZ_I : rdip   t1, %ctrl153, 
 PCState: (0x40c015=>0x40c017).(1=>2)   JZ_I : limm   t2, 0xa
 PCState: (0x40c015=>0x40c021).(2=>3)   JZ_I : wrip   , t1, t2
 PCState: (0x40c021=>0x40c02b).(0=>1)   MOV_M_I : limm   t1d, 0xffffffffffffffff
 PCState: (0x40c021=>0x40c02b).(1=>2)   MOV_M_I : st   t1d, DS:[rbx + 0xa8]
 PCState: (0x40c02b=>0x40c02f).(0=>1)   MOV_R_M : ld   rbx, DS:[rbx + 0x68]
 PCState: (0x40c02f=>0x40c032).(0=>1)   TEST_R_R : and   t0, rbx, rbx
 PCState: (0x40c032=>0x40c034).(0=>1)   JNZ_I : rdip   t1, %ctrl153, 
 PCState: (0x40c032=>0x40c034).(1=>2)   JNZ_I : limm   t2, 0xffffffffffffffd4
 PCState: (0x40c032=>0x40c034).(2=>3)   JNZ_I : wrip   , t1, t2
 PCState: (0x40c034=>0x40c038).(0=>1)   ADD_R_I : limm   t1, 0x8
 PCState: (0x40c034=>0x40c038).(1=>2)   ADD_R_I : add   rsp, rsp, t1
 PCState: (0x40c038=>0x40c03a).(0=>1)   MOV_R_R : mov   eax, eax, ebp
 PCState: (0x40c03a=>0x40c03b).(0=>1)   POP_R : ldis   t1, SS:[rsp]
 PCState: (0x40c03a=>0x40c03b).(1=>2)   POP_R : addi   rsp, rsp, 0x8
 PCState: (0x40c03a=>0x40c03b).(2=>3)   POP_R : mov   rbx, rbx, t1
 PCState: (0x40c03b=>0x40c03c).(0=>1)   POP_R : ldis   t1, SS:[rsp]
 PCState: (0x40c03b=>0x40c03c).(1=>2)   POP_R : addi   rsp, rsp, 0x8
 PCState: (0x40c03b=>0x40c03c).(2=>3)   POP_R : mov   rbp, rbp, t1
 PCState: (0x40c03c=>0x40c03d).(0=>1)   RET_NEAR : ld   t1, SS:[rsp]
 PCState: (0x40c03c=>0x40c03d).(1=>2)   RET_NEAR : addi   rsp, rsp, 0x8
 PCState: (0x40c03c=>0x40a927).(2=>3)   RET_NEAR : wripi   , t1, 0
 PCState: (0x40a927=>0x40a92b).(0=>1)   ADD_R_I : limm   t1, 0x8
 PCState: (0x40a927=>0x40a92b).(1=>2)   ADD_R_I : add   rbx, rbx, t1
 PCState: (0x40a92b=>0x40a932).(0=>1)   CMP_R_I : limm   t1, 0x476400
 PCState: (0x40a92b=>0x40a932).(1=>2)   CMP_R_I : sub   t0, rbx, t1
 PCState: (0x40a932=>0x40a934).(0=>1)   JB_I : rdip   t1, %ctrl153, 
 PCState: (0x40a932=>0x40a934).(1=>2)   JB_I : limm   t2, 0xfffffffffffffff1
 PCState: (0x40a932=>0x40a934).(2=>3)   JB_I : wrip   , t1, t2
 PCState: (0x40a934=>0x40a936).(0=>1)   MOV_R_R : mov   edi, edi, ebp
 PCState: (0x40a936=>0x40a93b).(0=>1)   CALL_NEAR_I : limm   t1, 0x8975
 PCState: (0x40a936=>0x40a93b).(1=>2)   CALL_NEAR_I : rdip   t7, %ctrl153, 
 PCState: (0x40a936=>0x40a93b).(2=>3)   CALL_NEAR_I : stis   t7, SS:[rsp + 0xfffffffffffffff8]
 PCState: (0x40a936=>0x40a93b).(3=>4)   CALL_NEAR_I : subi   rsp, rsp, 0x8
 PCState: (0x40a936=>0x4132b0).(4=>5)   CALL_NEAR_I : wrip   , t7, t1
 PCState: (0x4132b0=>0x4132b2).(0=>1)   PUSH_R : stis   r13, SS:[rsp + 0xfffffffffffffff8]
 PCState: (0x4132b0=>0x4132b2).(1=>2)   PUSH_R : subi   rsp, rsp, 0x8
 PCState: (0x4132b2=>0x4132b8).(0=>1)   MOV_R_I : limm   r13d, 0xe7
 PCState: (0x4132b8=>0x4132ba).(0=>1)   PUSH_R : stis   r12, SS:[rsp + 0xfffffffffffffff8]
 PCState: (0x4132b8=>0x4132ba).(1=>2)   PUSH_R : subi   rsp, rsp, 0x8
 PCState: (0x4132ba=>0x4132c0).(0=>1)   MOV_R_I : limm   r12d, 0x3c
 PCState: (0x4132c0=>0x4132c1).(0=>1)   PUSH_R : stis   rbp, SS:[rsp + 0xfffffffffffffff8]
 PCState: (0x4132c0=>0x4132c1).(1=>2)   PUSH_R : subi   rsp, rsp, 0x8
 PCState: (0x4132c1=>0x4132c4).(0=>1)   MOVSXD_R_R : sexti   rbp, rdi, 0x1f
 PCState: (0x4132c4=>0x4132c5).(0=>1)   PUSH_R : stis   rbx, SS:[rsp + 0xfffffffffffffff8]
 PCState: (0x4132c4=>0x4132c5).(1=>2)   PUSH_R : subi   rsp, rsp, 0x8
 PCState: (0x4132c5=>0x4132c9).(0=>1)   SUB_R_I : limm   t1, 0x8
 PCState: (0x4132c5=>0x4132c9).(1=>2)   SUB_R_I : sub   rsp, rsp, t1
 PCState: (0x4132c9=>0x4132cb).(0=>1)   JMP_I : rdip   t1, %ctrl153, 
 PCState: (0x4132c9=>0x4132cb).(1=>2)   JMP_I : limm   t2, 0x19
 PCState: (0x4132c9=>0x4132e4).(2=>3)   JMP_I : wrip   , t1, t2
 PCState: (0x4132e4=>0x4132e7).(0=>1)   MOV_R_R : mov   rdi, rdi, rbp
 PCState: (0x4132e7=>0x4132ea).(0=>1)   MOV_R_R : mov   eax, eax, r13d
Exiting @ tick 26341000 because exiting with last active thread context
