gem5 Simulator System.  http://gem5.org
gem5 is copyrighted software; use the --copyright option for details.

gem5 compiled Aug 11 2020 16:23:46
gem5 started Aug 11 2020 16:29:01
gem5 executing on dante, pid 28488
command line: /home/dante/gem5-changes/build/X86/gem5.opt --debug-flags=ConstProp,Decoder,O3CPUAll,Fetch,X86,Commit,IEW,SuperOp --debug-file=super.log /home/dante/gem5-changes/configs/example/se.py -c tests/test-progs/hello/bin/x86/linux/hello --cpu-type=O3_X86_skylake_1 --caches --l2cache --mem-type=DDR4_2400_16x4 --mem-channels=2 --enable-microop-cache --enable-micro-fusion --enable-superoptimization --lvpredType=fa3p --dynamicThreshold=0 --constantThreshold=3 --predictingArithmetic=1 --usingControlTracking=0 --maxRecursiveDepth=1 --usingTrace=1

Global frequency set at 1000000000000 ticks per second
**** REAL SIMULATION ****
Exiting @ tick 2855500 because user interrupt received
