gem5 Simulator System.  http://gem5.org
gem5 is copyrighted software; use the --copyright option for details.

gem5 compiled Aug  3 2020 22:58:31
gem5 started Aug  3 2020 22:58:44
gem5 executing on dante, pid 4987
command line: /home/dante/gem5-changes/build/X86/gem5.opt /home/dante/gem5-changes/configs/example/se.py -c tests/test-progs/hello/bin/x86/linux/hello --cpu-type=O3_X86_skylake_1 --caches --l2cache --mem-type=DDR4_2400_16x4 --mem-channels=2 --enable-microop-cache --enable-micro-fusion --enable-superoptimization --lvpredType=fa3p --dynamicThreshold=0 --constantThreshold=3 --predictingArithmetic=1 --usingControlTracking=0 --maxRecursiveDepth=1 --usingTrace=1

Global frequency set at 1000000000000 ticks per second
**** REAL SIMULATION ****
Instruction Commited: (1)1 PCState: (0x400190=>0x400193).(0=>1)   XOR_R_R : xor   rbp, rbp, rbp
Instruction Commited: (1)2 PCState: (0x400193=>0x400196).(0=>1)   MOV_R_R : mov   r9, r9, rdx
Instruction Commited: (1)3 PCState: (0x400196=>0x400197).(0=>1)   POP_R : ldis   t1, SS:[rsp]
Instruction Commited: (1)4 PCState: (0x400196=>0x400197).(1=>2)   POP_R : addi   rsp, rsp, 0x8
Instruction Commited: (1)5 PCState: (0x400196=>0x400197).(2=>3)   POP_R : mov   rsi, rsi, t1
Instruction Commited: (1)6 PCState: (0x400197=>0x40019a).(0=>1)   MOV_R_R : mov   rdx, rdx, rsp
Instruction Commited: (1)7 PCState: (0x40019a=>0x40019e).(0=>1)   AND_R_I : limm   t1, 0xfffffffffffffff0
Instruction Commited: (1)8 PCState: (0x40019a=>0x40019e).(1=>2)   AND_R_I : and   rsp, rsp, t1
Instruction Commited: (1)9 PCState: (0x40019e=>0x40019f).(0=>1)   PUSH_R : stis   rax, SS:[rsp + 0xfffffffffffffff8]
Instruction Commited: (1)10 PCState: (0x40019e=>0x40019f).(1=>2)   PUSH_R : subi   rsp, rsp, 0x8
Instruction Commited: (1)11 PCState: (0x40019f=>0x4001a0).(0=>1)   PUSH_R : stis   rsp, SS:[rsp + 0xfffffffffffffff8]
Instruction Commited: (1)12 PCState: (0x40019f=>0x4001a0).(1=>2)   PUSH_R : subi   rsp, rsp, 0x8
Instruction Commited: (1)13 PCState: (0x4001a0=>0x4001a7).(0=>1)   MOV_R_I : limm   r8, 0x40a060
Instruction Commited: (1)14 PCState: (0x4001a7=>0x4001ae).(0=>1)   MOV_R_I : limm   rcx, 0x409ff0
Instruction Commited: (1)15 PCState: (0x4001ae=>0x4001b5).(0=>1)   MOV_R_I : limm   rdi, 0x400274
Instruction Commited: (1)16 PCState: (0x4001b5=>0x4001ba).(0=>1)   CALL_NEAR_I : limm   t1, 0x9846
Instruction Commited: (1)17 PCState: (0x4001b5=>0x4001ba).(1=>2)   CALL_NEAR_I : rdip   t7, %ctrl153, 
Instruction Commited: (1)18 PCState: (0x4001b5=>0x4001ba).(2=>3)   CALL_NEAR_I : stis   t7, SS:[rsp + 0xfffffffffffffff8]
Instruction Commited: (1)19 PCState: (0x4001b5=>0x4001ba).(3=>4)   CALL_NEAR_I : subi   rsp, rsp, 0x8
Instruction Commited: (1)20 PCState: (0x4001b5=>0x409a00).(4=>5)   CALL_NEAR_I : wrip   , t7, t1
Instruction Commited: (1)22 PCState: (0x409a00=>0x409a02).(0=>1)   PUSH_R : stis   r15, SS:[rsp + 0xfffffffffffffff8]
Instruction Commited: (1)23 PCState: (0x409a00=>0x409a02).(1=>2)   PUSH_R : subi   rsp, rsp, 0x8
Instruction Commited: (1)24 PCState: (0x409a02=>0x409a05).(0=>1)   MOVSXD_R_R : sexti   rax, rsi, 0x1f
Instruction Commited: (1)25 PCState: (0x409a05=>0x409a08).(0=>1)   MOV_R_R : mov   r15, r15, r9
Instruction Commited: (1)26 PCState: (0x409a08=>0x409a0a).(0=>1)   PUSH_R : stis   r14, SS:[rsp + 0xfffffffffffffff8]
Instruction Commited: (1)27 PCState: (0x409a08=>0x409a0a).(1=>2)   PUSH_R : subi   rsp, rsp, 0x8
Instruction Commited: (1)28 PCState: (0x409a0a=>0x409a0d).(0=>1)   MOV_R_R : mov   r14, r14, rdx
Instruction Commited: (1)29 PCState: (0x409a0d=>0x409a0f).(0=>1)   PUSH_R : stis   r13, SS:[rsp + 0xfffffffffffffff8]
Instruction Commited: (1)30 PCState: (0x409a0d=>0x409a0f).(1=>2)   PUSH_R : subi   rsp, rsp, 0x8
Instruction Commited: (1)31 PCState: (0x409a0f=>0x409a12).(0=>1)   MOV_R_R : mov   r13d, r13d, esi
Instruction Commited: (1)32 PCState: (0x409a12=>0x409a14).(0=>1)   PUSH_R : stis   r12, SS:[rsp + 0xfffffffffffffff8]
Instruction Commited: (1)33 PCState: (0x409a12=>0x409a14).(1=>2)   PUSH_R : subi   rsp, rsp, 0x8
Instruction Commited: (1)34 PCState: (0x409a14=>0x409a15).(0=>1)   PUSH_R : stis   rbp, SS:[rsp + 0xfffffffffffffff8]
Instruction Commited: (1)35 PCState: (0x409a14=>0x409a15).(1=>2)   PUSH_R : subi   rsp, rsp, 0x8
Instruction Commited: (1)36 PCState: (0x409a15=>0x409a16).(0=>1)   PUSH_R : stis   rbx, SS:[rsp + 0xfffffffffffffff8]
Instruction Commited: (1)37 PCState: (0x409a15=>0x409a16).(1=>2)   PUSH_R : subi   rsp, rsp, 0x8
Instruction Commited: (1)38 PCState: (0x409a16=>0x409a1d).(0=>1)   SUB_R_I : limm   t1, 0x1f8
Instruction Commited: (1)39 PCState: (0x409a16=>0x409a1d).(1=>2)   SUB_R_I : sub   rsp, rsp, t1
Instruction Commited: (1)40 PCState: (0x409a1d=>0x409a22).(0=>1)   MOV_M_R : st   rdi, DS:[rsp + 0x18]
Instruction Commited: (1)41 PCState: (0x409a22=>0x409a27).(0=>1)   LEA_R_M : lea   rdi, DS:[8*rax + rdx + 0x8]
Instruction Commited: (1)42 PCState: (0x409a27=>0x409a2c).(0=>1)   MOV_R_I : limm   eax, 0
Instruction Commited: (1)43 PCState: (0x409a2c=>0x409a2e).(0=>1)   XOR_R_R : xor   edx, edx, edx
Instruction Commited: (1)44 PCState: (0x409a2e=>0x409a31).(0=>1)   TEST_R_R : and   t0, rax, rax
Instruction Commited: (1)45 PCState: (0x409a31=>0x409a36).(0=>1)   MOV_M_R : st   rcx, DS:[rsp + 0x10]
Instruction Commited: (1)46 PCState: (0x409a36=>0x409a3b).(0=>1)   MOV_M_R : st   r8, DS:[rsp + 0x8]
Instruction Commited: (1)47 PCState: (0x409a3b=>0x409a3d).(0=>1)   JZ_I : rdip   t1, %ctrl153, 
Instruction Commited: (1)48 PCState: (0x409a3b=>0x409a3d).(1=>2)   JZ_I : limm   t2, 0x12
Instruction Commited: (1)49 PCState: (0x409a3b=>0x409a4f).(2=>3)   JZ_I : wrip   , t1, t2
Instruction Commited: (1)50 PCState: (0x409a4f=>0x409a57).(0=>1)   MOV_R_M : ld   rax, DS:[rsp + 0x230]
Instruction Commited: (1)51 PCState: (0x409a57=>0x409a5d).(0=>1)   MOV_P_R : rdip   t7d, %ctrl153, 
Instruction Commited: (1)52 PCState: (0x409a57=>0x409a5d).(1=>2)   MOV_P_R : st   edx, DS:[t7 + 0x176d53]
Instruction Commited: (1)53 PCState: (0x409a5d=>0x409a64).(0=>1)   MOV_P_R : rdip   t7, %ctrl153, 
Instruction Commited: (1)54 PCState: (0x409a5d=>0x409a64).(1=>2)   MOV_P_R : st   rdi, DS:[t7 + 0x189394]
Instruction Commited: (1)55 PCState: (0x409a64=>0x409a6b).(0=>1)   MOV_P_R : rdip   t7, %ctrl153, 
Instruction Commited: (1)56 PCState: (0x409a64=>0x409a6b).(1=>2)   MOV_P_R : st   rax, DS:[t7 + 0x175f8d]
Instruction Commited: (0)57 PCState: (0x409a6b=>0x409a6e).(0=>1)   NOP   
Instruction Commited: (0)58 PCState: (0x409a6e=>0x409a70).(0=>1)   NOP   
Instruction Commited: (1)59 PCState: (0x409a70=>0x409a73).(0=>1)   MOV_R_M : ld   rax, DS:[rdi]
Instruction Commited: (1)60 PCState: (0x409a73=>0x409a77).(0=>1)   ADD_R_I : limm   t1, 0x8
Instruction Commited: (1)61 PCState: (0x409a73=>0x409a77).(1=>2)   ADD_R_I : add   rdi, rdi, t1
Instruction Commited: (1)62 PCState: (0x409a77=>0x409a7a).(0=>1)   TEST_R_R : and   t0, rax, rax
Instruction Commited: (1)63 PCState: (0x409a7a=>0x409a7c).(0=>1)   JNZ_I : rdip   t1, %ctrl153, 
Instruction Commited: (1)64 PCState: (0x409a7a=>0x409a7c).(1=>2)   JNZ_I : limm   t2, 0xfffffffffffffff4
Instruction Commited: (1)65 PCState: (0x409a7a=>0x409a7c).(2=>3)   JNZ_I : wrip   , t1, t2
Instruction Commited: (1)66 PCState: (0x409a7c=>0x409a81).(0=>1)   CALL_NEAR_I : limm   t1, 0xc07f
Instruction Commited: (1)67 PCState: (0x409a7c=>0x409a81).(1=>2)   CALL_NEAR_I : rdip   t7, %ctrl153, 
Instruction Commited: (1)68 PCState: (0x409a7c=>0x409a81).(2=>3)   CALL_NEAR_I : stis   t7, SS:[rsp + 0xfffffffffffffff8]
Instruction Commited: (1)69 PCState: (0x409a7c=>0x409a81).(3=>4)   CALL_NEAR_I : subi   rsp, rsp, 0x8
Instruction Commited: (1)70 PCState: (0x409a7c=>0x415b00).(4=>5)   CALL_NEAR_I : wrip   , t7, t1
Instruction Commited: (1)94 PCState: (0x415b00=>0x415b03).(0=>1)   MOV_R_M : ld   rax, DS:[rdi]
Instruction Commited: (1)95 PCState: (0x415b03=>0x415b05).(0=>1)   XOR_R_R : xor   edx, edx, edx
Instruction Commited: (1)96 PCState: (0x415b05=>0x415b07).(0=>1)   XOR_R_R : xor   ecx, ecx, ecx
Instruction Commited: (1)97 PCState: (0x415b07=>0x415b09).(0=>1)   XOR_R_R : xor   esi, esi, esi
Instruction Commited: (1)98 PCState: (0x415b09=>0x415b0c).(0=>1)   TEST_R_R : and   t0, rax, rax
Instruction Commited: (1)99 PCState: (0x415b0c=>0x415b0e).(0=>1)   JZ_I : rdip   t1, %ctrl153, 
Instruction Commited: (1)100 PCState: (0x415b0c=>0x415b0e).(1=>2)   JZ_I : limm   t2, 0x47
Instruction Commited: (1)101 PCState: (0x415b0c=>0x415b0e).(2=>3)   JZ_I : wrip   , t1, t2
Instruction Commited: (0)102 PCState: (0x415b0e=>0x415b10).(0=>1)   NOP   
Instruction Commited: (1)103 PCState: (0x415b10=>0x415b14).(0=>1)   SUB_R_I : limm   t1, 0x3
Instruction Commited: (1)104 PCState: (0x415b10=>0x415b14).(1=>2)   SUB_R_I : sub   rax, rax, t1
Instruction Commited: (1)105 PCState: (0x415b14=>0x415b18).(0=>1)   CMP_R_I : limm   t1, 0x14
Instruction Commited: (1)106 PCState: (0x415b14=>0x415b18).(1=>2)   CMP_R_I : sub   t0, rax, t1
Instruction Commited: (1)107 PCState: (0x415b18=>0x415b1a).(0=>1)   JNBE_I : rdip   t1, %ctrl153, 
Instruction Commited: (1)108 PCState: (0x415b18=>0x415b1a).(1=>2)   JNBE_I : limm   t2, 0x26
Instruction Commited: (1)109 PCState: (0x415b18=>0x415b40).(2=>3)   JNBE_I : wrip   , t1, t2
Instruction Commited: (1)121 PCState: (0x415b40=>0x415b44).(0=>1)   ADD_R_I : limm   t1, 0x10
Instruction Commited: (1)122 PCState: (0x415b40=>0x415b44).(1=>2)   ADD_R_I : add   rdi, rdi, t1
Instruction Commited: (1)123 PCState: (0x415b44=>0x415b47).(0=>1)   MOV_R_M : ld   rax, DS:[rdi]
Instruction Commited: (1)124 PCState: (0x415b47=>0x415b4a).(0=>1)   TEST_R_R : and   t0, rax, rax
Instruction Commited: (1)125 PCState: (0x415b4a=>0x415b4c).(0=>1)   JNZ_I : rdip   t1, %ctrl153, 
Instruction Commited: (1)126 PCState: (0x415b4a=>0x415b4c).(1=>2)   JNZ_I : limm   t2, 0xffffffffffffffc4
Instruction Commited: (1)127 PCState: (0x415b4a=>0x415b10).(2=>3)   JNZ_I : wrip   , t1, t2
Instruction Commited: (1)193 PCState: (0x415b10=>0x415b14).(0=>1)   SUB_R_I : limm   t1, 0x3
Instruction Commited: (1)194 PCState: (0x415b10=>0x415b14).(1=>2)   SUB_R_I : sub   rax, rax, t1
Instruction Commited: (1)195 PCState: (0x415b14=>0x415b18).(0=>1)   CMP_R_I : limm   t1, 0x14
Instruction Commited: (1)196 PCState: (0x415b14=>0x415b18).(1=>2)   CMP_R_I : sub   t0, rax, t1
Instruction Commited: (1)197 PCState: (0x415b18=>0x415b1a).(0=>1)   JNBE_I : rdip   t1, %ctrl153, 
Instruction Commited: (1)198 PCState: (0x415b18=>0x415b1a).(1=>2)   JNBE_I : limm   t2, 0x26
Instruction Commited: (1)199 PCState: (0x415b18=>0x415b1a).(2=>3)   JNBE_I : wrip   , t1, t2
Instruction Commited: (1)272 PCState: (0x415b1a=>0x415b21).(0=>1)   JMP_M : ld   t1, DS:[8*rax + 0x45eb80]
Instruction Commited: (1)273 PCState: (0x415b1a=>0x415b6f).(1=>2)   JMP_M : wripi   , t1, 0
Instruction Commited: (1)509 PCState: (0x415b6f=>0x415b73).(0=>1)   MOV_R_M : ld   rax, DS:[rdi + 0x8]
Instruction Commited: (1)510 PCState: (0x415b73=>0x415b77).(0=>1)   ADD_R_I : limm   t1, 0x10
Instruction Commited: (1)511 PCState: (0x415b73=>0x415b77).(1=>2)   ADD_R_I : add   rdi, rdi, t1
Instruction Commited: (1)512 PCState: (0x415b77=>0x415b7e).(0=>1)   MOV_P_R : rdip   t7, %ctrl153, 
Instruction Commited: (1)513 PCState: (0x415b77=>0x415b7e).(1=>2)   MOV_P_R : st   rax, DS:[t7 + 0x17d2f2]
Instruction Commited: (1)514 PCState: (0x415b7e=>0x415b81).(0=>1)   MOV_R_M : ld   rax, DS:[rdi]
Instruction Commited: (1)515 PCState: (0x415b81=>0x415b84).(0=>1)   TEST_R_R : and   t0, rax, rax
Instruction Commited: (1)516 PCState: (0x415b84=>0x415b86).(0=>1)   JNZ_I : rdip   t1, %ctrl153, 
Instruction Commited: (1)517 PCState: (0x415b84=>0x415b86).(1=>2)   JNZ_I : limm   t2, 0xffffffffffffff8a
Instruction Commited: (1)518 PCState: (0x415b84=>0x415b10).(2=>3)   JNZ_I : wrip   , t1, t2
Instruction Commited: (1)604 PCState: (0x415b10=>0x415b14).(0=>1)   SUB_R_I : limm   t1, 0x3
Instruction Commited: (1)605 PCState: (0x415b10=>0x415b14).(1=>2)   SUB_R_I : sub   rax, rax, t1
Instruction Commited: (1)606 PCState: (0x415b14=>0x415b18).(0=>1)   CMP_R_I : limm   t1, 0x14
Instruction Commited: (1)607 PCState: (0x415b14=>0x415b18).(1=>2)   CMP_R_I : sub   t0, rax, t1
Instruction Commited: (1)608 PCState: (0x415b18=>0x415b1a).(0=>1)   JNBE_I : rdip   t1, %ctrl153, 
Instruction Commited: (1)609 PCState: (0x415b18=>0x415b1a).(1=>2)   JNBE_I : limm   t2, 0x26
Instruction Commited: (1)610 PCState: (0x415b18=>0x415b1a).(2=>3)   JNBE_I : wrip   , t1, t2
Instruction Commited: (1)611 PCState: (0x415b1a=>0x415b21).(0=>1)   JMP_M : ld   t1, DS:[8*rax + 0x45eb80]
Instruction Commited: (1)612 PCState: (0x415b1a=>0x415bee).(1=>2)   JMP_M : wripi   , t1, 0
Instruction Commited: (1)701 PCState: (0x415bee=>0x415bf2).(0=>1)   MOV_R_M : ld   rax, DS:[rdi + 0x8]
Instruction Commited: (1)702 PCState: (0x415bf2=>0x415bf6).(0=>1)   ADD_R_I : limm   t1, 0x10
Instruction Commited: (1)703 PCState: (0x415bf2=>0x415bf6).(1=>2)   ADD_R_I : add   rdi, rdi, t1
Instruction Commited: (1)704 PCState: (0x415bf6=>0x415bfd).(0=>1)   MOV_P_R : rdip   t7, %ctrl153, 
Instruction Commited: (1)705 PCState: (0x415bf6=>0x415bfd).(1=>2)   MOV_P_R : st   rax, DS:[t7 + 0x17d943]
Instruction Commited: (1)706 PCState: (0x415bfd=>0x415c00).(0=>1)   MOV_R_M : ld   rax, DS:[rdi]
Instruction Commited: (1)707 PCState: (0x415c00=>0x415c03).(0=>1)   TEST_R_R : and   t0, rax, rax
Instruction Commited: (1)708 PCState: (0x415c03=>0x415c09).(0=>1)   JNZ_I : rdip   t1, %ctrl153, 
Instruction Commited: (1)709 PCState: (0x415c03=>0x415c09).(1=>2)   JNZ_I : limm   t2, 0xffffffffffffff07
Instruction Commited: (1)710 PCState: (0x415c03=>0x415b10).(2=>3)   JNZ_I : wrip   , t1, t2
Instruction Commited: (1)733 PCState: (0x415b10=>0x415b14).(0=>1)   SUB_R_I : limm   t1, 0x3
Instruction Commited: (1)734 PCState: (0x415b10=>0x415b14).(1=>2)   SUB_R_I : sub   rax, rax, t1
Instruction Commited: (1)735 PCState: (0x415b14=>0x415b18).(0=>1)   CMP_R_I : limm   t1, 0x14
Instruction Commited: (1)736 PCState: (0x415b14=>0x415b18).(1=>2)   CMP_R_I : sub   t0, rax, t1
Instruction Commited: (1)737 PCState: (0x415b18=>0x415b1a).(0=>1)   JNBE_I : rdip   t1, %ctrl153, 
Instruction Commited: (1)738 PCState: (0x415b18=>0x415b1a).(1=>2)   JNBE_I : limm   t2, 0x26
Instruction Commited: (1)739 PCState: (0x415b18=>0x415b1a).(2=>3)   JNBE_I : wrip   , t1, t2
Instruction Commited: (1)740 PCState: (0x415b1a=>0x415b21).(0=>1)   JMP_M : ld   t1, DS:[8*rax + 0x45eb80]
Instruction Commited: (1)741 PCState: (0x415b1a=>0x415b57).(1=>2)   JMP_M : wripi   , t1, 0
Instruction Commited: (1)838 PCState: (0x415b57=>0x415b5b).(0=>1)   MOV_R_M : ld   rax, DS:[rdi + 0x8]
Instruction Commited: (1)839 PCState: (0x415b5b=>0x415b5f).(0=>1)   ADD_R_I : limm   t1, 0x10
Instruction Commited: (1)840 PCState: (0x415b5b=>0x415b5f).(1=>2)   ADD_R_I : add   rdi, rdi, t1
Instruction Commited: (1)841 PCState: (0x415b5f=>0x415b65).(0=>1)   MOV_P_R : rdip   t7d, %ctrl153, 
Instruction Commited: (1)842 PCState: (0x415b5f=>0x415b65).(1=>2)   MOV_P_R : st   eax, DS:[t7 + 0x17d98b]
Instruction Commited: (1)843 PCState: (0x415b65=>0x415b68).(0=>1)   MOV_R_M : ld   rax, DS:[rdi]
Instruction Commited: (1)844 PCState: (0x415b68=>0x415b6b).(0=>1)   TEST_R_R : and   t0, rax, rax
Instruction Commited: (1)845 PCState: (0x415b6b=>0x415b6d).(0=>1)   JNZ_I : rdip   t1, %ctrl153, 
Instruction Commited: (1)846 PCState: (0x415b6b=>0x415b6d).(1=>2)   JNZ_I : limm   t2, 0xffffffffffffffa3
Instruction Commited: (1)847 PCState: (0x415b6b=>0x415b10).(2=>3)   JNZ_I : wrip   , t1, t2
Instruction Commited: (1)930 PCState: (0x415b10=>0x415b14).(0=>1)   SUB_R_I : limm   t1, 0x3
Instruction Commited: (1)931 PCState: (0x415b10=>0x415b14).(1=>2)   SUB_R_I : sub   rax, rax, t1
Instruction Commited: (1)932 PCState: (0x415b14=>0x415b18).(0=>1)   CMP_R_I : limm   t1, 0x14
Instruction Commited: (1)933 PCState: (0x415b14=>0x415b18).(1=>2)   CMP_R_I : sub   t0, rax, t1
Instruction Commited: (1)934 PCState: (0x415b18=>0x415b1a).(0=>1)   JNBE_I : rdip   t1, %ctrl153, 
Instruction Commited: (1)935 PCState: (0x415b18=>0x415b1a).(1=>2)   JNBE_I : limm   t2, 0x26
Instruction Commited: (1)936 PCState: (0x415b18=>0x415b1a).(2=>3)   JNBE_I : wrip   , t1, t2
Instruction Commited: (1)937 PCState: (0x415b1a=>0x415b21).(0=>1)   JMP_M : ld   t1, DS:[8*rax + 0x45eb80]
Instruction Commited: (1)938 PCState: (0x415b1a=>0x415c0e).(1=>2)   JMP_M : wripi   , t1, 0
Instruction Commited: (1)1027 PCState: (0x415c0e=>0x415c12).(0=>1)   MOV_R_M : ld   rax, DS:[rdi + 0x8]
Instruction Commited: (1)1028 PCState: (0x415c12=>0x415c16).(0=>1)   ADD_R_I : limm   t1, 0x10
Instruction Commited: (1)1029 PCState: (0x415c12=>0x415c16).(1=>2)   ADD_R_I : add   rdi, rdi, t1
Instruction Commited: (1)1030 PCState: (0x415c16=>0x415c1d).(0=>1)   MOV_P_R : rdip   t7, %ctrl153, 
Instruction Commited: (1)1031 PCState: (0x415c16=>0x415c1d).(1=>2)   MOV_P_R : st   rax, DS:[t7 + 0x17d8c3]
Instruction Commited: (1)1032 PCState: (0x415c1d=>0x415c20).(0=>1)   MOV_R_M : ld   rax, DS:[rdi]
Instruction Commited: (1)1033 PCState: (0x415c20=>0x415c23).(0=>1)   TEST_R_R : and   t0, rax, rax
Instruction Commited: (1)1034 PCState: (0x415c23=>0x415c29).(0=>1)   JNZ_I : rdip   t1, %ctrl153, 
Instruction Commited: (1)1035 PCState: (0x415c23=>0x415c29).(1=>2)   JNZ_I : limm   t2, 0xfffffffffffffee7
Instruction Commited: (1)1036 PCState: (0x415c23=>0x415b10).(2=>3)   JNZ_I : wrip   , t1, t2
Instruction Commited: (1)1087 PCState: (0x415b10=>0x415b14).(0=>1)   SUB_R_I : limm   t1, 0x3
Instruction Commited: (1)1088 PCState: (0x415b10=>0x415b14).(1=>2)   SUB_R_I : sub   rax, rax, t1
Instruction Commited: (1)1089 PCState: (0x415b14=>0x415b18).(0=>1)   CMP_R_I : limm   t1, 0x14
Instruction Commited: (1)1090 PCState: (0x415b14=>0x415b18).(1=>2)   CMP_R_I : sub   t0, rax, t1
Instruction Commited: (1)1091 PCState: (0x415b18=>0x415b1a).(0=>1)   JNBE_I : rdip   t1, %ctrl153, 
Instruction Commited: (1)1092 PCState: (0x415b18=>0x415b1a).(1=>2)   JNBE_I : limm   t2, 0x26
Instruction Commited: (1)1093 PCState: (0x415b18=>0x415b1a).(2=>3)   JNBE_I : wrip   , t1, t2
Instruction Commited: (1)1094 PCState: (0x415b1a=>0x415b21).(0=>1)   JMP_M : ld   t1, DS:[8*rax + 0x45eb80]
Instruction Commited: (1)1095 PCState: (0x415b1a=>0x415b40).(1=>2)   JMP_M : wripi   , t1, 0
Instruction Commited: (1)1178 PCState: (0x415b40=>0x415b44).(0=>1)   ADD_R_I : limm   t1, 0x10
Instruction Commited: (1)1179 PCState: (0x415b40=>0x415b44).(1=>2)   ADD_R_I : add   rdi, rdi, t1
Instruction Commited: (1)1180 PCState: (0x415b44=>0x415b47).(0=>1)   MOV_R_M : ld   rax, DS:[rdi]
Instruction Commited: (1)1181 PCState: (0x415b47=>0x415b4a).(0=>1)   TEST_R_R : and   t0, rax, rax
Instruction Commited: (1)1182 PCState: (0x415b4a=>0x415b4c).(0=>1)   JNZ_I : rdip   t1, %ctrl153, 
Instruction Commited: (1)1183 PCState: (0x415b4a=>0x415b4c).(1=>2)   JNZ_I : limm   t2, 0xffffffffffffffc4
Instruction Commited: (1)1184 PCState: (0x415b4a=>0x415b10).(2=>3)   JNZ_I : wrip   , t1, t2
Instruction Commited: (1)1185 PCState: (0x415b10=>0x415b14).(0=>1)   SUB_R_I : limm   t1, 0x3
Instruction Commited: (1)1186 PCState: (0x415b10=>0x415b14).(1=>2)   SUB_R_I : sub   rax, rax, t1
Instruction Commited: (1)1187 PCState: (0x415b14=>0x415b18).(0=>1)   CMP_R_I : limm   t1, 0x14
Instruction Commited: (1)1188 PCState: (0x415b14=>0x415b18).(1=>2)   CMP_R_I : sub   t0, rax, t1
Instruction Commited: (1)1189 PCState: (0x415b18=>0x415b1a).(0=>1)   JNBE_I : rdip   t1, %ctrl153, 
Instruction Commited: (1)1190 PCState: (0x415b18=>0x415b1a).(1=>2)   JNBE_I : limm   t2, 0x26
Instruction Commited: (1)1191 PCState: (0x415b18=>0x415b1a).(2=>3)   JNBE_I : wrip   , t1, t2
Instruction Commited: (1)1192 PCState: (0x415b1a=>0x415b21).(0=>1)   JMP_M : ld   t1, DS:[8*rax + 0x45eb80]
Instruction Commited: (1)1193 PCState: (0x415b1a=>0x415c2e).(1=>2)   JMP_M : wripi   , t1, 0
Instruction Commited: (1)1300 PCState: (0x415c2e=>0x415c32).(0=>1)   MOV_R_M : ld   rax, DS:[rdi + 0x8]
Instruction Commited: (1)1301 PCState: (0x415c32=>0x415c36).(0=>1)   ADD_R_I : limm   t1, 0x10
Instruction Commited: (1)1302 PCState: (0x415c32=>0x415c36).(1=>2)   ADD_R_I : add   rdi, rdi, t1
Instruction Commited: (1)1303 PCState: (0x415c36=>0x415c3d).(0=>1)   MOV_P_R : rdip   t7, %ctrl153, 
Instruction Commited: (1)1304 PCState: (0x415c36=>0x415c3d).(1=>2)   MOV_P_R : st   rax, DS:[t7 + 0x17d8d3]
Instruction Commited: (1)1305 PCState: (0x415c3d=>0x415c40).(0=>1)   MOV_R_M : ld   rax, DS:[rdi]
Instruction Commited: (1)1306 PCState: (0x415c40=>0x415c43).(0=>1)   TEST_R_R : and   t0, rax, rax
Instruction Commited: (1)1307 PCState: (0x415c43=>0x415c49).(0=>1)   JNZ_I : rdip   t1, %ctrl153, 
Instruction Commited: (1)1308 PCState: (0x415c43=>0x415c49).(1=>2)   JNZ_I : limm   t2, 0xfffffffffffffec7
Instruction Commited: (1)1309 PCState: (0x415c43=>0x415b10).(2=>3)   JNZ_I : wrip   , t1, t2
Instruction Commited: (1)1473 PCState: (0x415b10=>0x415b14).(0=>1)   SUB_R_I : limm   t1, 0x3
Instruction Commited: (1)1474 PCState: (0x415b10=>0x415b14).(1=>2)   SUB_R_I : sub   rax, rax, t1
Instruction Commited: (1)1475 PCState: (0x415b14=>0x415b18).(0=>1)   CMP_R_I : limm   t1, 0x14
Instruction Commited: (1)1476 PCState: (0x415b14=>0x415b18).(1=>2)   CMP_R_I : sub   t0, rax, t1
Instruction Commited: (1)1477 PCState: (0x415b18=>0x415b1a).(0=>1)   JNBE_I : rdip   t1, %ctrl153, 
Instruction Commited: (1)1478 PCState: (0x415b18=>0x415b1a).(1=>2)   JNBE_I : limm   t2, 0x26
Instruction Commited: (1)1479 PCState: (0x415b18=>0x415b1a).(2=>3)   JNBE_I : wrip   , t1, t2
Instruction Commited: (1)1480 PCState: (0x415b1a=>0x415b21).(0=>1)   JMP_M : ld   t1, DS:[8*rax + 0x45eb80]
Instruction Commited: (1)1481 PCState: (0x415b1a=>0x415b40).(1=>2)   JMP_M : wripi   , t1, 0
Instruction Commited: (1)1570 PCState: (0x415b40=>0x415b44).(0=>1)   ADD_R_I : limm   t1, 0x10
Instruction Commited: (1)1571 PCState: (0x415b40=>0x415b44).(1=>2)   ADD_R_I : add   rdi, rdi, t1
Instruction Commited: (1)1572 PCState: (0x415b44=>0x415b47).(0=>1)   MOV_R_M : ld   rax, DS:[rdi]
Instruction Commited: (1)1573 PCState: (0x415b47=>0x415b4a).(0=>1)   TEST_R_R : and   t0, rax, rax
Instruction Commited: (1)1574 PCState: (0x415b4a=>0x415b4c).(0=>1)   JNZ_I : rdip   t1, %ctrl153, 
Instruction Commited: (1)1575 PCState: (0x415b4a=>0x415b4c).(1=>2)   JNZ_I : limm   t2, 0xffffffffffffffc4
Instruction Commited: (1)1576 PCState: (0x415b4a=>0x415b10).(2=>3)   JNZ_I : wrip   , t1, t2
Instruction Commited: (1)1577 PCState: (0x415b10=>0x415b14).(0=>1)   SUB_R_I : limm   t1, 0x3
Instruction Commited: (1)1578 PCState: (0x415b10=>0x415b14).(1=>2)   SUB_R_I : sub   rax, rax, t1
Instruction Commited: (1)1579 PCState: (0x415b14=>0x415b18).(0=>1)   CMP_R_I : limm   t1, 0x14
Instruction Commited: (1)1580 PCState: (0x415b14=>0x415b18).(1=>2)   CMP_R_I : sub   t0, rax, t1
Instruction Commited: (1)1581 PCState: (0x415b18=>0x415b1a).(0=>1)   JNBE_I : rdip   t1, %ctrl153, 
Instruction Commited: (1)1582 PCState: (0x415b18=>0x415b1a).(1=>2)   JNBE_I : limm   t2, 0x26
Instruction Commited: (1)1583 PCState: (0x415b18=>0x415b1a).(2=>3)   JNBE_I : wrip   , t1, t2
Instruction Commited: (1)1584 PCState: (0x415b1a=>0x415b21).(0=>1)   JMP_M : ld   t1, DS:[8*rax + 0x45eb80]
Instruction Commited: (1)1585 PCState: (0x415b1a=>0x415b40).(1=>2)   JMP_M : wripi   , t1, 0
Instruction Commited: (1)1692 PCState: (0x415b40=>0x415b44).(0=>1)   ADD_R_I : limm   t1, 0x10
Instruction Commited: (1)1693 PCState: (0x415b40=>0x415b44).(1=>2)   ADD_R_I : add   rdi, rdi, t1
Instruction Commited: (1)1694 PCState: (0x415b44=>0x415b47).(0=>1)   MOV_R_M : ld   rax, DS:[rdi]
Instruction Commited: (1)1695 PCState: (0x415b47=>0x415b4a).(0=>1)   TEST_R_R : and   t0, rax, rax
Instruction Commited: (1)1696 PCState: (0x415b4a=>0x415b4c).(0=>1)   JNZ_I : rdip   t1, %ctrl153, 
Instruction Commited: (1)1697 PCState: (0x415b4a=>0x415b4c).(1=>2)   JNZ_I : limm   t2, 0xffffffffffffffc4
Instruction Commited: (1)1698 PCState: (0x415b4a=>0x415b10).(2=>3)   JNZ_I : wrip   , t1, t2
Instruction Commited: (1)1699 PCState: (0x415b10=>0x415b14).(0=>1)   SUB_R_I : limm   t1, 0x3
Instruction Commited: (1)1700 PCState: (0x415b10=>0x415b14).(1=>2)   SUB_R_I : sub   rax, rax, t1
Instruction Commited: (1)1701 PCState: (0x415b14=>0x415b18).(0=>1)   CMP_R_I : limm   t1, 0x14
Instruction Commited: (1)1702 PCState: (0x415b14=>0x415b18).(1=>2)   CMP_R_I : sub   t0, rax, t1
Instruction Commited: (1)1703 PCState: (0x415b18=>0x415b1a).(0=>1)   JNBE_I : rdip   t1, %ctrl153, 
Instruction Commited: (1)1704 PCState: (0x415b18=>0x415b1a).(1=>2)   JNBE_I : limm   t2, 0x26
Instruction Commited: (1)1705 PCState: (0x415b18=>0x415b1a).(2=>3)   JNBE_I : wrip   , t1, t2
Instruction Commited: (1)1706 PCState: (0x415b1a=>0x415b21).(0=>1)   JMP_M : ld   t1, DS:[8*rax + 0x45eb80]
Instruction Commited: (1)1707 PCState: (0x415b1a=>0x415b40).(1=>2)   JMP_M : wripi   , t1, 0
Instruction Commited: (1)1864 PCState: (0x415b40=>0x415b44).(0=>1)   ADD_R_I : limm   t1, 0x10
Instruction Commited: (1)1865 PCState: (0x415b40=>0x415b44).(1=>2)   ADD_R_I : add   rdi, rdi, t1
Instruction Commited: (1)1866 PCState: (0x415b44=>0x415b47).(0=>1)   MOV_R_M : ld   rax, DS:[rdi]
Instruction Commited: (1)1867 PCState: (0x415b47=>0x415b4a).(0=>1)   TEST_R_R : and   t0, rax, rax
Instruction Commited: (1)1868 PCState: (0x415b4a=>0x415b4c).(0=>1)   JNZ_I : rdip   t1, %ctrl153, 
Instruction Commited: (1)1869 PCState: (0x415b4a=>0x415b4c).(1=>2)   JNZ_I : limm   t2, 0xffffffffffffffc4
Instruction Commited: (1)1870 PCState: (0x415b4a=>0x415b10).(2=>3)   JNZ_I : wrip   , t1, t2
Instruction Commited: (1)1871 PCState: (0x415b10=>0x415b14).(0=>1)   SUB_R_I : limm   t1, 0x3
Instruction Commited: (1)1872 PCState: (0x415b10=>0x415b14).(1=>2)   SUB_R_I : sub   rax, rax, t1
Instruction Commited: (1)1873 PCState: (0x415b14=>0x415b18).(0=>1)   CMP_R_I : limm   t1, 0x14
Instruction Commited: (1)1874 PCState: (0x415b14=>0x415b18).(1=>2)   CMP_R_I : sub   t0, rax, t1
Instruction Commited: (1)1875 PCState: (0x415b18=>0x415b1a).(0=>1)   JNBE_I : rdip   t1, %ctrl153, 
Instruction Commited: (1)1876 PCState: (0x415b18=>0x415b1a).(1=>2)   JNBE_I : limm   t2, 0x26
Instruction Commited: (1)1877 PCState: (0x415b18=>0x415b1a).(2=>3)   JNBE_I : wrip   , t1, t2
Instruction Commited: (1)1878 PCState: (0x415b1a=>0x415b21).(0=>1)   JMP_M : ld   t1, DS:[8*rax + 0x45eb80]
Instruction Commited: (1)1879 PCState: (0x415b1a=>0x415bd3).(1=>2)   JMP_M : wripi   , t1, 0
Instruction Commited: (1)1986 PCState: (0x415bd3=>0x415bd6).(0=>1)   XOR_R_M : ld   t1d, DS:[rdi + 0x8]
Instruction Commited: (1)1987 PCState: (0x415bd3=>0x415bd6).(1=>2)   XOR_R_M : xor   ecx, ecx, t1d
Instruction Commited: (1)1988 PCState: (0x415bd6=>0x415bda).(0=>1)   ADD_R_I : limm   t1, 0x10
Instruction Commited: (1)1989 PCState: (0x415bd6=>0x415bda).(1=>2)   ADD_R_I : add   rdi, rdi, t1
Instruction Commited: (1)1990 PCState: (0x415bda=>0x415bdd).(0=>1)   OR_R_I : limm   t1d, 0x1
Instruction Commited: (1)1991 PCState: (0x415bda=>0x415bdd).(1=>2)   OR_R_I : or   edx, edx, t1d
Instruction Commited: (1)1992 PCState: (0x415bdd=>0x415be0).(0=>1)   MOV_R_M : ld   rax, DS:[rdi]
Instruction Commited: (1)1993 PCState: (0x415be0=>0x415be3).(0=>1)   TEST_R_R : and   t0, rax, rax
Instruction Commited: (1)1994 PCState: (0x415be3=>0x415be9).(0=>1)   JNZ_I : rdip   t1, %ctrl153, 
Instruction Commited: (1)1995 PCState: (0x415be3=>0x415be9).(1=>2)   JNZ_I : limm   t2, 0xffffffffffffff27
Instruction Commited: (1)1996 PCState: (0x415be3=>0x415b10).(2=>3)   JNZ_I : wrip   , t1, t2
Instruction Commited: (1)2155 PCState: (0x415b10=>0x415b14).(0=>1)   SUB_R_I : limm   t1, 0x3
Instruction Commited: (1)2156 PCState: (0x415b10=>0x415b14).(1=>2)   SUB_R_I : sub   rax, rax, t1
Instruction Commited: (1)2157 PCState: (0x415b14=>0x415b18).(0=>1)   CMP_R_I : limm   t1, 0x14
Instruction Commited: (1)2158 PCState: (0x415b14=>0x415b18).(1=>2)   CMP_R_I : sub   t0, rax, t1
Instruction Commited: (1)2159 PCState: (0x415b18=>0x415b1a).(0=>1)   JNBE_I : rdip   t1, %ctrl153, 
Instruction Commited: (1)2160 PCState: (0x415b18=>0x415b1a).(1=>2)   JNBE_I : limm   t2, 0x26
Instruction Commited: (1)2161 PCState: (0x415b18=>0x415b1a).(2=>3)   JNBE_I : wrip   , t1, t2
Instruction Commited: (1)2162 PCState: (0x415b1a=>0x415b21).(0=>1)   JMP_M : ld   t1, DS:[8*rax + 0x45eb80]
Instruction Commited: (1)2163 PCState: (0x415b1a=>0x415bb8).(1=>2)   JMP_M : wripi   , t1, 0
Instruction Commited: (1)2252 PCState: (0x415bb8=>0x415bbb).(0=>1)   XOR_R_M : ld   t1d, DS:[rdi + 0x8]
Instruction Commited: (1)2253 PCState: (0x415bb8=>0x415bbb).(1=>2)   XOR_R_M : xor   ecx, ecx, t1d
Instruction Commited: (1)2254 PCState: (0x415bbb=>0x415bbf).(0=>1)   ADD_R_I : limm   t1, 0x10
Instruction Commited: (1)2255 PCState: (0x415bbb=>0x415bbf).(1=>2)   ADD_R_I : add   rdi, rdi, t1
Instruction Commited: (1)2256 PCState: (0x415bbf=>0x415bc2).(0=>1)   OR_R_I : limm   t1d, 0x2
Instruction Commited: (1)2257 PCState: (0x415bbf=>0x415bc2).(1=>2)   OR_R_I : or   edx, edx, t1d
Instruction Commited: (1)2258 PCState: (0x415bc2=>0x415bc5).(0=>1)   MOV_R_M : ld   rax, DS:[rdi]
Instruction Commited: (1)2259 PCState: (0x415bc5=>0x415bc8).(0=>1)   TEST_R_R : and   t0, rax, rax
Instruction Commited: (1)2260 PCState: (0x415bc8=>0x415bce).(0=>1)   JNZ_I : rdip   t1, %ctrl153, 
Instruction Commited: (1)2261 PCState: (0x415bc8=>0x415bce).(1=>2)   JNZ_I : limm   t2, 0xffffffffffffff42
Instruction Commited: (1)2262 PCState: (0x415bc8=>0x415b10).(2=>3)   JNZ_I : wrip   , t1, t2
Instruction Commited: (1)2353 PCState: (0x415b10=>0x415b14).(0=>1)   SUB_R_I : limm   t1, 0x3
Instruction Commited: (1)2354 PCState: (0x415b10=>0x415b14).(1=>2)   SUB_R_I : sub   rax, rax, t1
Instruction Commited: (1)2355 PCState: (0x415b14=>0x415b18).(0=>1)   CMP_R_I : limm   t1, 0x14
Instruction Commited: (1)2356 PCState: (0x415b14=>0x415b18).(1=>2)   CMP_R_I : sub   t0, rax, t1
Instruction Commited: (1)2357 PCState: (0x415b18=>0x415b1a).(0=>1)   JNBE_I : rdip   t1, %ctrl153, 
Instruction Commited: (1)2358 PCState: (0x415b18=>0x415b1a).(1=>2)   JNBE_I : limm   t2, 0x26
Instruction Commited: (1)2359 PCState: (0x415b18=>0x415b1a).(2=>3)   JNBE_I : wrip   , t1, t2
Instruction Commited: (1)2360 PCState: (0x415b1a=>0x415b21).(0=>1)   JMP_M : ld   t1, DS:[8*rax + 0x45eb80]
Instruction Commited: (1)2361 PCState: (0x415b1a=>0x415ba0).(1=>2)   JMP_M : wripi   , t1, 0
Instruction Commited: (1)2450 PCState: (0x415ba0=>0x415ba3).(0=>1)   XOR_R_M : ld   t1d, DS:[rdi + 0x8]
Instruction Commited: (1)2451 PCState: (0x415ba0=>0x415ba3).(1=>2)   XOR_R_M : xor   esi, esi, t1d
Instruction Commited: (1)2452 PCState: (0x415ba3=>0x415ba7).(0=>1)   ADD_R_I : limm   t1, 0x10
Instruction Commited: (1)2453 PCState: (0x415ba3=>0x415ba7).(1=>2)   ADD_R_I : add   rdi, rdi, t1
Instruction Commited: (1)2454 PCState: (0x415ba7=>0x415baa).(0=>1)   OR_R_I : limm   t1d, 0x4
Instruction Commited: (1)2455 PCState: (0x415ba7=>0x415baa).(1=>2)   OR_R_I : or   edx, edx, t1d
Instruction Commited: (1)2456 PCState: (0x415baa=>0x415bad).(0=>1)   MOV_R_M : ld   rax, DS:[rdi]
Instruction Commited: (1)2457 PCState: (0x415bad=>0x415bb0).(0=>1)   TEST_R_R : and   t0, rax, rax
Instruction Commited: (1)2458 PCState: (0x415bb0=>0x415bb6).(0=>1)   JNZ_I : rdip   t1, %ctrl153, 
Instruction Commited: (1)2459 PCState: (0x415bb0=>0x415bb6).(1=>2)   JNZ_I : limm   t2, 0xffffffffffffff5a
Instruction Commited: (1)2460 PCState: (0x415bb0=>0x415b10).(2=>3)   JNZ_I : wrip   , t1, t2
Instruction Commited: (1)2582 PCState: (0x415b10=>0x415b14).(0=>1)   SUB_R_I : limm   t1, 0x3
Instruction Commited: (1)2583 PCState: (0x415b10=>0x415b14).(1=>2)   SUB_R_I : sub   rax, rax, t1
Instruction Commited: (1)2584 PCState: (0x415b14=>0x415b18).(0=>1)   CMP_R_I : limm   t1, 0x14
Instruction Commited: (1)2585 PCState: (0x415b14=>0x415b18).(1=>2)   CMP_R_I : sub   t0, rax, t1
Instruction Commited: (1)2586 PCState: (0x415b18=>0x415b1a).(0=>1)   JNBE_I : rdip   t1, %ctrl153, 
Instruction Commited: (1)2587 PCState: (0x415b18=>0x415b1a).(1=>2)   JNBE_I : limm   t2, 0x26
Instruction Commited: (1)2588 PCState: (0x415b18=>0x415b1a).(2=>3)   JNBE_I : wrip   , t1, t2
Instruction Commited: (1)2589 PCState: (0x415b1a=>0x415b21).(0=>1)   JMP_M : ld   t1, DS:[8*rax + 0x45eb80]
Instruction Commited: (1)2590 PCState: (0x415b1a=>0x415b88).(1=>2)   JMP_M : wripi   , t1, 0
Instruction Commited: (1)2688 PCState: (0x415b88=>0x415b8b).(0=>1)   XOR_R_M : ld   t1d, DS:[rdi + 0x8]
Instruction Commited: (1)2689 PCState: (0x415b88=>0x415b8b).(1=>2)   XOR_R_M : xor   esi, esi, t1d
Instruction Commited: (1)2690 PCState: (0x415b8b=>0x415b8f).(0=>1)   ADD_R_I : limm   t1, 0x10
Instruction Commited: (1)2691 PCState: (0x415b8b=>0x415b8f).(1=>2)   ADD_R_I : add   rdi, rdi, t1
Instruction Commited: (1)2692 PCState: (0x415b8f=>0x415b92).(0=>1)   OR_R_I : limm   t1d, 0x8
Instruction Commited: (1)2693 PCState: (0x415b8f=>0x415b92).(1=>2)   OR_R_I : or   edx, edx, t1d
Instruction Commited: (1)2694 PCState: (0x415b92=>0x415b95).(0=>1)   MOV_R_M : ld   rax, DS:[rdi]
Instruction Commited: (1)2695 PCState: (0x415b95=>0x415b98).(0=>1)   TEST_R_R : and   t0, rax, rax
Instruction Commited: (1)2696 PCState: (0x415b98=>0x415b9e).(0=>1)   JNZ_I : rdip   t1, %ctrl153, 
Instruction Commited: (1)2697 PCState: (0x415b98=>0x415b9e).(1=>2)   JNZ_I : limm   t2, 0xffffffffffffff72
Instruction Commited: (1)2698 PCState: (0x415b98=>0x415b10).(2=>3)   JNZ_I : wrip   , t1, t2
Instruction Commited: (1)2790 PCState: (0x415b10=>0x415b14).(0=>1)   SUB_R_I : limm   t1, 0x3
Instruction Commited: (1)2791 PCState: (0x415b10=>0x415b14).(1=>2)   SUB_R_I : sub   rax, rax, t1
Instruction Commited: (1)2792 PCState: (0x415b14=>0x415b18).(0=>1)   CMP_R_I : limm   t1, 0x14
Instruction Commited: (1)2793 PCState: (0x415b14=>0x415b18).(1=>2)   CMP_R_I : sub   t0, rax, t1
Instruction Commited: (1)2794 PCState: (0x415b18=>0x415b1a).(0=>1)   JNBE_I : rdip   t1, %ctrl153, 
Instruction Commited: (1)2795 PCState: (0x415b18=>0x415b1a).(1=>2)   JNBE_I : limm   t2, 0x26
Instruction Commited: (1)2796 PCState: (0x415b18=>0x415b1a).(2=>3)   JNBE_I : wrip   , t1, t2
Instruction Commited: (1)2797 PCState: (0x415b1a=>0x415b21).(0=>1)   JMP_M : ld   t1, DS:[8*rax + 0x45eb80]
Instruction Commited: (1)2798 PCState: (0x415b1a=>0x415b21).(1=>2)   JMP_M : wripi   , t1, 0
Instruction Commited: (1)2799 PCState: (0x415b21=>0x415b25).(0=>1)   MOV_R_M : ld   rax, DS:[rdi + 0x8]
Instruction Commited: (1)2800 PCState: (0x415b25=>0x415b2a).(0=>1)   MOV_R_I : limm   edx, 0xffffffffffffffff
Instruction Commited: (1)2801 PCState: (0x415b2a=>0x415b34).(0=>1)   MOV_P_I : rdip   t7d, %ctrl153, 
Instruction Commited: (1)2802 PCState: (0x415b2a=>0x415b34).(1=>2)   MOV_P_I : limm   t1d, 0x1
Instruction Commited: (1)2803 PCState: (0x415b2a=>0x415b34).(2=>3)   MOV_P_I : st   t1d, DS:[t7 + 0x17da5c]
Instruction Commited: (1)2804 PCState: (0x415b34=>0x415b3a).(0=>1)   MOV_P_R : rdip   t7d, %ctrl153, 
Instruction Commited: (1)2805 PCState: (0x415b34=>0x415b3a).(1=>2)   MOV_P_R : st   eax, DS:[t7 + 0x169ec6]
Instruction Commited: (0)2806 PCState: (0x415b3a=>0x415b3d).(0=>1)   NOP   
Instruction Commited: (0)2807 PCState: (0x415b3d=>0x415b40).(0=>1)   NOP   
Instruction Commited: (1)2808 PCState: (0x415b40=>0x415b44).(0=>1)   ADD_R_I : limm   t1, 0x10
Instruction Commited: (1)2809 PCState: (0x415b40=>0x415b44).(1=>2)   ADD_R_I : add   rdi, rdi, t1
Instruction Commited: (1)2810 PCState: (0x415b44=>0x415b47).(0=>1)   MOV_R_M : ld   rax, DS:[rdi]
Instruction Commited: (1)2811 PCState: (0x415b47=>0x415b4a).(0=>1)   TEST_R_R : and   t0, rax, rax
Instruction Commited: (1)2812 PCState: (0x415b4a=>0x415b4c).(0=>1)   JNZ_I : rdip   t1, %ctrl153, 
Instruction Commited: (1)2813 PCState: (0x415b4a=>0x415b4c).(1=>2)   JNZ_I : limm   t2, 0xffffffffffffffc4
Instruction Commited: (1)2814 PCState: (0x415b4a=>0x415b10).(2=>3)   JNZ_I : wrip   , t1, t2
Instruction Commited: (1)2815 PCState: (0x415b10=>0x415b14).(0=>1)   SUB_R_I : limm   t1, 0x3
Instruction Commited: (1)2816 PCState: (0x415b10=>0x415b14).(1=>2)   SUB_R_I : sub   rax, rax, t1
Instruction Commited: (1)2817 PCState: (0x415b14=>0x415b18).(0=>1)   CMP_R_I : limm   t1, 0x14
Instruction Commited: (1)2818 PCState: (0x415b14=>0x415b18).(1=>2)   CMP_R_I : sub   t0, rax, t1
Instruction Commited: (1)2819 PCState: (0x415b18=>0x415b1a).(0=>1)   JNBE_I : rdip   t1, %ctrl153, 
Instruction Commited: (1)2820 PCState: (0x415b18=>0x415b1a).(1=>2)   JNBE_I : limm   t2, 0x26
Instruction Commited: (1)2821 PCState: (0x415b18=>0x415b40).(2=>3)   JNBE_I : wrip   , t1, t2
Instruction Commited: (1)3016 PCState: (0x415b40=>0x415b44).(0=>1)   ADD_R_I : limm   t1, 0x10
Instruction Commited: (1)3017 PCState: (0x415b40=>0x415b44).(1=>2)   ADD_R_I : add   rdi, rdi, t1
Instruction Commited: (1)3018 PCState: (0x415b44=>0x415b47).(0=>1)   MOV_R_M : ld   rax, DS:[rdi]
Instruction Commited: (1)3019 PCState: (0x415b47=>0x415b4a).(0=>1)   TEST_R_R : and   t0, rax, rax
Instruction Commited: (1)3020 PCState: (0x415b4a=>0x415b4c).(0=>1)   JNZ_I : rdip   t1, %ctrl153, 
Instruction Commited: (1)3021 PCState: (0x415b4a=>0x415b4c).(1=>2)   JNZ_I : limm   t2, 0xffffffffffffffc4
Instruction Commited: (1)3022 PCState: (0x415b4a=>0x415b10).(2=>3)   JNZ_I : wrip   , t1, t2
Instruction Commited: (1)3023 PCState: (0x415b10=>0x415b14).(0=>1)   SUB_R_I : limm   t1, 0x3
Instruction Commited: (1)3024 PCState: (0x415b10=>0x415b14).(1=>2)   SUB_R_I : sub   rax, rax, t1
Instruction Commited: (1)3025 PCState: (0x415b14=>0x415b18).(0=>1)   CMP_R_I : limm   t1, 0x14
Instruction Commited: (1)3026 PCState: (0x415b14=>0x415b18).(1=>2)   CMP_R_I : sub   t0, rax, t1
Instruction Commited: (1)3027 PCState: (0x415b18=>0x415b1a).(0=>1)   JNBE_I : rdip   t1, %ctrl153, 
Instruction Commited: (1)3028 PCState: (0x415b18=>0x415b1a).(1=>2)   JNBE_I : limm   t2, 0x26
Instruction Commited: (1)3029 PCState: (0x415b18=>0x415b40).(2=>3)   JNBE_I : wrip   , t1, t2
Instruction Commited: (1)3139 PCState: (0x415b40=>0x415b44).(0=>1)   ADD_R_I : limm   t1, 0x10
Instruction Commited: (1)3140 PCState: (0x415b40=>0x415b44).(1=>2)   ADD_R_I : add   rdi, rdi, t1
Instruction Commited: (1)3141 PCState: (0x415b44=>0x415b47).(0=>1)   MOV_R_M : ld   rax, DS:[rdi]
Instruction Commited: (1)3142 PCState: (0x415b47=>0x415b4a).(0=>1)   TEST_R_R : and   t0, rax, rax
Instruction Commited: (1)3281 PCState: (0x415b47=>0x415b4a).(0=>1)   TEST_R_R : and   t0, rax, rax
Instruction Commited: (1)3282 PCState: (0x415b4a=>0x415b4c).(0=>1)   JNZ_I : rdip   t1, %ctrl153, 
Instruction Commited: (1)3283 PCState: (0x415b4a=>0x415b4c).(1=>2)   JNZ_I : limm   t2, 0xffffffffffffffc4
Instruction Commited: (1)3284 PCState: (0x415b4a=>0x415b10).(2=>3)   JNZ_I : wrip   , t1, t2
Instruction Commited: (1)3285 PCState: (0x415b10=>0x415b14).(0=>1)   SUB_R_I : limm   t1, 0x3
Instruction Commited: (1)3286 PCState: (0x415b10=>0x415b14).(1=>2)   SUB_R_I : sub   rax, rax, t1
Instruction Commited: (1)3287 PCState: (0x415b14=>0x415b18).(0=>1)   CMP_R_I : limm   t1, 0x14
Instruction Commited: (1)3288 PCState: (0x415b14=>0x415b18).(1=>2)   CMP_R_I : sub   t0, rax, t1
Instruction Commited: (1)3289 PCState: (0x415b18=>0x415b1a).(0=>1)   JNBE_I : rdip   t1, %ctrl153, 
Instruction Commited: (1)3290 PCState: (0x415b18=>0x415b1a).(1=>2)   JNBE_I : limm   t2, 0x26
Instruction Commited: (1)3291 PCState: (0x415b18=>0x415b1a).(2=>3)   JNBE_I : wrip   , t1, t2
Instruction Commited: (1)3292 PCState: (0x415b1a=>0x415b21).(0=>1)   JMP_M : ld   t1, DS:[8*rax + 0x45eb80]
Instruction Commited: (1)3293 PCState: (0x415b1a=>0x415b40).(1=>2)   JMP_M : wripi   , t1, 0
Instruction Commited: (1)3378 PCState: (0x415b40=>0x415b44).(0=>1)   ADD_R_I : limm   t1, 0x10
Instruction Commited: (1)3379 PCState: (0x415b40=>0x415b44).(1=>2)   ADD_R_I : add   rdi, rdi, t1
Instruction Commited: (1)3380 PCState: (0x415b44=>0x415b47).(0=>1)   MOV_R_M : ld   rax, DS:[rdi]
Instruction Commited: (1)3381 PCState: (0x415b47=>0x415b4a).(0=>1)   TEST_R_R : and   t0, rax, rax
Instruction Commited: (1)3382 PCState: (0x415b4a=>0x415b4c).(0=>1)   JNZ_I : rdip   t1, %ctrl153, 
Instruction Commited: (1)3383 PCState: (0x415b4a=>0x415b4c).(1=>2)   JNZ_I : limm   t2, 0xffffffffffffffc4
Instruction Commited: (1)3384 PCState: (0x415b4a=>0x415b4c).(2=>3)   JNZ_I : wrip   , t1, t2
Instruction Commited: (1)3476 PCState: (0x415b4c=>0x415b4f).(0=>1)   CMP_R_I : limm   t1d, 0xf
Instruction Commited: (1)3477 PCState: (0x415b4c=>0x415b4f).(1=>2)   CMP_R_I : sub   t0d, edx, t1d
Instruction Commited: (1)3478 PCState: (0x415b4f=>0x415b55).(0=>1)   JZ_I : rdip   t1, %ctrl153, 
Instruction Commited: (1)3479 PCState: (0x415b4f=>0x415b55).(1=>2)   JZ_I : limm   t2, 0xf9
Instruction Commited: (1)3480 PCState: (0x415b4f=>0x415b55).(2=>3)   JZ_I : wrip   , t1, t2
Instruction Commited: (1)3481 PCState: (0x415b55=>0x415b57).(0=>1)   RET_NEAR : ld   t1, SS:[rsp]
Instruction Commited: (1)3482 PCState: (0x415b55=>0x415b57).(1=>2)   RET_NEAR : addi   rsp, rsp, 0x8
Instruction Commited: (1)3483 PCState: (0x415b55=>0x409a81).(2=>3)   RET_NEAR : wripi   , t1, 0
Instruction Commited: (1)3484 PCState: (0x409a81=>0x409a88).(0=>1)   MOV_R_P : rdip   t7d, %ctrl153, 
Instruction Commited: (1)3485 PCState: (0x409a81=>0x409a88).(1=>2)   MOV_R_P : ld   r10d, DS:[t7 + 0x176d28]
Instruction Commited: (1)3486 PCState: (0x409a88=>0x409a8b).(0=>1)   TEST_R_R : and   t0d, r10d, r10d
Instruction Commited: (1)3487 PCState: (0x409a8b=>0x409a91).(0=>1)   JNZ_I : rdip   t1, %ctrl153, 
Instruction Commited: (1)3488 PCState: (0x409a8b=>0x409a91).(1=>2)   JNZ_I : limm   t2, 0xa4
Instruction Commited: (1)3489 PCState: (0x409a8b=>0x409a91).(2=>3)   JNZ_I : wrip   , t1, t2
Instruction Commited: (1)3490 PCState: (0x409a91=>0x409a96).(0=>1)   LEA_R_M : lea   rbx, DS:[rsp + 0x20]
Instruction Commited: (1)3491 PCState: (0x409a96=>0x409a9e).(0=>1)   LEA_R_M : lea   r12, DS:[rsp + 0x1b0]
Instruction Commited: (1)3492 PCState: (0x409a9e=>0x409aa1).(0=>1)   MOV_R_R : mov   rdi, rdi, rbx
Instruction Commited: (1)3493 PCState: (0x409aa1=>0x409aa6).(0=>1)   CALL_NEAR_I : limm   t1, 0x97ea
Instruction Commited: (1)3494 PCState: (0x409aa1=>0x409aa6).(1=>2)   CALL_NEAR_I : rdip   t7, %ctrl153, 
Instruction Commited: (1)3495 PCState: (0x409aa1=>0x409aa6).(2=>3)   CALL_NEAR_I : stis   t7, SS:[rsp + 0xfffffffffffffff8]
Instruction Commited: (1)3496 PCState: (0x409aa1=>0x409aa6).(3=>4)   CALL_NEAR_I : subi   rsp, rsp, 0x8
Instruction Commited: (1)3497 PCState: (0x409aa1=>0x413290).(4=>5)   CALL_NEAR_I : wrip   , t7, t1
Instruction Commited: (1)3498 PCState: (0x413290=>0x413297).(0=>1)   MOV_R_I : limm   rax, 0x3f
Instruction Commited: (0)3499 PCState: (0x413297=>0x413299).(0=>1)   syscall    eax
Instruction Commited: (1)3500 PCState: (0x413299=>0x41329f).(0=>1)   CMP_R_I : limm   t1, 0xfffffffffffff001
Instruction Commited: (1)3501 PCState: (0x413299=>0x41329f).(1=>2)   CMP_R_I : sub   t0, rax, t1
Instruction Commited: (1)3502 PCState: (0x41329f=>0x4132a5).(0=>1)   JNB_I : rdip   t1, %ctrl153, 
Instruction Commited: (1)3503 PCState: (0x41329f=>0x4132a5).(1=>2)   JNB_I : limm   t2, 0x2feb
Instruction Commited: (1)3504 PCState: (0x41329f=>0x4132a5).(2=>3)   JNB_I : wrip   , t1, t2
Instruction Commited: (1)3505 PCState: (0x4132a5=>0x4132a6).(0=>1)   RET_NEAR : ld   t1, SS:[rsp]
Instruction Commited: (1)3506 PCState: (0x4132a5=>0x4132a6).(1=>2)   RET_NEAR : addi   rsp, rsp, 0x8
Instruction Commited: (1)3507 PCState: (0x4132a5=>0x409aa6).(2=>3)   RET_NEAR : wripi   , t1, 0
Instruction Commited: (1)3508 PCState: (0x409aa6=>0x409aa8).(0=>1)   TEST_R_R : and   t0d, eax, eax
Instruction Commited: (1)3509 PCState: (0x409aa8=>0x409aae).(0=>1)   JNZ_I : rdip   t1, %ctrl153, 
Instruction Commited: (1)3510 PCState: (0x409aa8=>0x409aae).(1=>2)   JNZ_I : limm   t2, 0xff
Instruction Commited: (1)3511 PCState: (0x409aa8=>0x409aae).(2=>3)   JNZ_I : wrip   , t1, t2
Instruction Commited: (1)3512 PCState: (0x409aae=>0x409ab5).(0=>1)   LEA_R_M : lea   r12, DS:[rbx + 0x82]
Instruction Commited: (1)3513 PCState: (0x409ab5=>0x409aba).(0=>1)   MOVZX_B_R_M : ld   t1b, DS:[r12]
Instruction Commited: (1)3514 PCState: (0x409ab5=>0x409aba).(1=>2)   MOVZX_B_R_M : zexti   edx, t1d, 0x7
Instruction Commited: (1)3515 PCState: (0x409aba=>0x409abc).(0=>1)   XOR_R_R : xor   edi, edi, edi
Instruction Commited: (1)3516 PCState: (0x409abc=>0x409abf).(0=>1)   XOR_R_R : xor   r8d, r8d, r8d
Instruction Commited: (1)3517 PCState: (0x409abf=>0x409ac2).(0=>1)   MOV_R_R : mov   rsi, rsi, r12
Instruction Commited: (1)3518 PCState: (0x409ac2=>0x409ac5).(0=>1)   LEA_R_M : lea   eax, DS:[rdx + 0xffffffffffffffd0]
Instruction Commited: (1)3519 PCState: (0x409ac5=>0x409ac7).(0=>1)   CMP_R_I : limm   t1b, 0x9
Instruction Commited: (1)3520 PCState: (0x409ac5=>0x409ac7).(1=>2)   CMP_R_I : sub   t0b, al, t1b
Instruction Commited: (1)3521 PCState: (0x409ac7=>0x409ac9).(0=>1)   JNBE_I : rdip   t1, %ctrl153, 
Instruction Commited: (1)3522 PCState: (0x409ac7=>0x409ac9).(1=>2)   JNBE_I : limm   t2, 0x4d
Instruction Commited: (1)3523 PCState: (0x409ac7=>0x409ac9).(2=>3)   JNBE_I : wrip   , t1, t2
Instruction Commited: (0)3524 PCState: (0x409ac9=>0x409acd).(0=>1)   NOP   
Instruction Commited: (0)3525 PCState: (0x409acd=>0x409ad0).(0=>1)   NOP   
Instruction Commited: (1)3526 PCState: (0x409ad0=>0x409ad3).(0=>1)   MOVSX_B_R_R : mov   t1b, t1b, dl
Instruction Commited: (1)3527 PCState: (0x409ad0=>0x409ad3).(1=>2)   MOVSX_B_R_R : sexti   eax, t1d, 0x7
Instruction Commited: (1)3528 PCState: (0x409ad3=>0x409ad6).(0=>1)   LEA_R_M : lea   ecx, DS:[rax + 0xffffffffffffffd0]
Instruction Commited: (1)3529 PCState: (0x409ad6=>0x409ad8).(0=>1)   JMP_I : rdip   t1, %ctrl153, 
Instruction Commited: (1)3530 PCState: (0x409ad6=>0x409ad8).(1=>2)   JMP_I : limm   t2, 0x11
Instruction Commited: (1)3531 PCState: (0x409ad6=>0x409ae9).(2=>3)   JMP_I : wrip   , t1, t2
Instruction Commited: (1)3590 PCState: (0x409ae9=>0x409aec).(0=>1)   INC_R : addi   rsi, rsi, 0x1
Instruction Commited: (1)3591 PCState: (0x409aec=>0x409aef).(0=>1)   MOVZX_B_R_M : ld   t1b, DS:[rsi]
Instruction Commited: (1)3592 PCState: (0x409aec=>0x409aef).(1=>2)   MOVZX_B_R_M : zexti   edx, t1d, 0x7
Instruction Commited: (1)3593 PCState: (0x409aef=>0x409af2).(0=>1)   LEA_R_M : lea   eax, DS:[rdx + 0xffffffffffffffd0]
Instruction Commited: (1)3594 PCState: (0x409af2=>0x409af4).(0=>1)   CMP_R_I : limm   t1b, 0x9
Instruction Commited: (1)3595 PCState: (0x409af2=>0x409af4).(1=>2)   CMP_R_I : sub   t0b, al, t1b
Instruction Commited: (1)3596 PCState: (0x409af4=>0x409af6).(0=>1)   JBE_I : rdip   t1, %ctrl153, 
Instruction Commited: (1)3597 PCState: (0x409af4=>0x409af6).(1=>2)   JBE_I : limm   t2, 0xffffffffffffffe2
Instruction Commited: (1)3598 PCState: (0x409af4=>0x409af6).(2=>3)   JBE_I : wrip   , t1, t2
Instruction Commited: (1)3599 PCState: (0x409af6=>0x409af9).(0=>1)   SAL_R_I : slli   edi, edi, 0x8
Instruction Commited: (1)3600 PCState: (0x409af9=>0x409afc).(0=>1)   INC_R : addi   r8d, r8d, 0x1
Instruction Commited: (1)3601 PCState: (0x409afc=>0x409aff).(0=>1)   INC_R : addi   rsi, rsi, 0x1
Instruction Commited: (1)3602 PCState: (0x409aff=>0x409b01).(0=>1)   OR_R_R : or   edi, edi, ecx
Instruction Commited: (1)3603 PCState: (0x409b01=>0x409b04).(0=>1)   CMP_R_I : limm   t1b, 0x2e
Instruction Commited: (1)3604 PCState: (0x409b01=>0x409b04).(1=>2)   CMP_R_I : sub   t0b, dl, t1b
Instruction Commited: (1)3605 PCState: (0x409b04=>0x409b06).(0=>1)   JNZ_I : rdip   t1, %ctrl153, 
Instruction Commited: (1)3606 PCState: (0x409b04=>0x409b06).(1=>2)   JNZ_I : limm   t2, 0xa
Instruction Commited: (1)3607 PCState: (0x409b04=>0x409b06).(2=>3)   JNZ_I : wrip   , t1, t2
Instruction Commited: (1)3608 PCState: (0x409b06=>0x409b09).(0=>1)   MOVZX_B_R_M : ld   t1b, DS:[rsi]
Instruction Commited: (1)3609 PCState: (0x409b06=>0x409b09).(1=>2)   MOVZX_B_R_M : zexti   edx, t1d, 0x7
Instruction Commited: (1)3610 PCState: (0x409b09=>0x409b0c).(0=>1)   LEA_R_M : lea   eax, DS:[rdx + 0xffffffffffffffd0]
Instruction Commited: (1)3611 PCState: (0x409b0c=>0x409b0e).(0=>1)   CMP_R_I : limm   t1b, 0x9
Instruction Commited: (1)3612 PCState: (0x409b0c=>0x409b0e).(1=>2)   CMP_R_I : sub   t0b, al, t1b
Instruction Commited: (1)3613 PCState: (0x409b0e=>0x409b10).(0=>1)   JBE_I : rdip   t1, %ctrl153, 
Instruction Commited: (1)3614 PCState: (0x409b0e=>0x409b10).(1=>2)   JBE_I : limm   t2, 0xffffffffffffffc0
Instruction Commited: (1)3615 PCState: (0x409b0e=>0x409ad0).(2=>3)   JBE_I : wrip   , t1, t2
Instruction Commited: (1)3654 PCState: (0x409ad0=>0x409ad3).(0=>1)   MOVSX_B_R_R : mov   t1b, t1b, dl
Instruction Commited: (1)3655 PCState: (0x409ad0=>0x409ad3).(1=>2)   MOVSX_B_R_R : sexti   eax, t1d, 0x7
Instruction Commited: (1)3656 PCState: (0x409ad3=>0x409ad6).(0=>1)   LEA_R_M : lea   ecx, DS:[rax + 0xffffffffffffffd0]
Instruction Commited: (1)3657 PCState: (0x409ad6=>0x409ad8).(0=>1)   JMP_I : rdip   t1, %ctrl153, 
Instruction Commited: (1)3658 PCState: (0x409ad6=>0x409ad8).(1=>2)   JMP_I : limm   t2, 0x11
Instruction Commited: (1)3659 PCState: (0x409ad6=>0x409ae9).(2=>3)   JMP_I : wrip   , t1, t2
Instruction Commited: (1)3660 PCState: (0x409ae9=>0x409aec).(0=>1)   INC_R : addi   rsi, rsi, 0x1
Instruction Commited: (1)3661 PCState: (0x409aec=>0x409aef).(0=>1)   MOVZX_B_R_M : ld   t1b, DS:[rsi]
Instruction Commited: (1)3662 PCState: (0x409aec=>0x409aef).(1=>2)   MOVZX_B_R_M : zexti   edx, t1d, 0x7
Instruction Commited: (1)3663 PCState: (0x409aef=>0x409af2).(0=>1)   LEA_R_M : lea   eax, DS:[rdx + 0xffffffffffffffd0]
Instruction Commited: (1)3664 PCState: (0x409af2=>0x409af4).(0=>1)   CMP_R_I : limm   t1b, 0x9
Instruction Commited: (1)3665 PCState: (0x409af2=>0x409af4).(1=>2)   CMP_R_I : sub   t0b, al, t1b
Instruction Commited: (1)3666 PCState: (0x409af4=>0x409af6).(0=>1)   JBE_I : rdip   t1, %ctrl153, 
Instruction Commited: (1)3667 PCState: (0x409af4=>0x409af6).(1=>2)   JBE_I : limm   t2, 0xffffffffffffffe2
Instruction Commited: (1)3668 PCState: (0x409af4=>0x409af6).(2=>3)   JBE_I : wrip   , t1, t2
Instruction Commited: (1)3669 PCState: (0x409af6=>0x409af9).(0=>1)   SAL_R_I : slli   edi, edi, 0x8
Instruction Commited: (1)3670 PCState: (0x409af9=>0x409afc).(0=>1)   INC_R : addi   r8d, r8d, 0x1
Instruction Commited: (1)3671 PCState: (0x409afc=>0x409aff).(0=>1)   INC_R : addi   rsi, rsi, 0x1
Instruction Commited: (1)3672 PCState: (0x409aff=>0x409b01).(0=>1)   OR_R_R : or   edi, edi, ecx
Instruction Commited: (1)3673 PCState: (0x409b01=>0x409b04).(0=>1)   CMP_R_I : limm   t1b, 0x2e
Instruction Commited: (1)3674 PCState: (0x409b01=>0x409b04).(1=>2)   CMP_R_I : sub   t0b, dl, t1b
Instruction Commited: (1)3675 PCState: (0x409b04=>0x409b06).(0=>1)   JNZ_I : rdip   t1, %ctrl153, 
Instruction Commited: (1)3676 PCState: (0x409b04=>0x409b06).(1=>2)   JNZ_I : limm   t2, 0xa
Instruction Commited: (1)3677 PCState: (0x409b04=>0x409b06).(2=>3)   JNZ_I : wrip   , t1, t2
Instruction Commited: (1)3678 PCState: (0x409b06=>0x409b09).(0=>1)   MOVZX_B_R_M : ld   t1b, DS:[rsi]
Instruction Commited: (1)3679 PCState: (0x409b06=>0x409b09).(1=>2)   MOVZX_B_R_M : zexti   edx, t1d, 0x7
Instruction Commited: (1)3680 PCState: (0x409b09=>0x409b0c).(0=>1)   LEA_R_M : lea   eax, DS:[rdx + 0xffffffffffffffd0]
Instruction Commited: (1)3681 PCState: (0x409b0c=>0x409b0e).(0=>1)   CMP_R_I : limm   t1b, 0x9
Instruction Commited: (1)3682 PCState: (0x409b0c=>0x409b0e).(1=>2)   CMP_R_I : sub   t0b, al, t1b
Instruction Commited: (1)3683 PCState: (0x409b0e=>0x409b10).(0=>1)   JBE_I : rdip   t1, %ctrl153, 
Instruction Commited: (1)3684 PCState: (0x409b0e=>0x409b10).(1=>2)   JBE_I : limm   t2, 0xffffffffffffffc0
Instruction Commited: (1)3685 PCState: (0x409b0e=>0x409ad0).(2=>3)   JBE_I : wrip   , t1, t2
Instruction Commited: (1)3686 PCState: (0x409ad0=>0x409ad3).(0=>1)   MOVSX_B_R_R : mov   t1b, t1b, dl
Instruction Commited: (1)3687 PCState: (0x409ad0=>0x409ad3).(1=>2)   MOVSX_B_R_R : sexti   eax, t1d, 0x7
Instruction Commited: (1)3688 PCState: (0x409ad3=>0x409ad6).(0=>1)   LEA_R_M : lea   ecx, DS:[rax + 0xffffffffffffffd0]
Instruction Commited: (1)3689 PCState: (0x409ad6=>0x409ad8).(0=>1)   JMP_I : rdip   t1, %ctrl153, 
Instruction Commited: (1)3690 PCState: (0x409ad6=>0x409ad8).(1=>2)   JMP_I : limm   t2, 0x11
Instruction Commited: (1)3691 PCState: (0x409ad6=>0x409ae9).(2=>3)   JMP_I : wrip   , t1, t2
Instruction Commited: (1)3692 PCState: (0x409ae9=>0x409aec).(0=>1)   INC_R : addi   rsi, rsi, 0x1
Instruction Commited: (1)3693 PCState: (0x409aec=>0x409aef).(0=>1)   MOVZX_B_R_M : ld   t1b, DS:[rsi]
Instruction Commited: (1)3694 PCState: (0x409aec=>0x409aef).(1=>2)   MOVZX_B_R_M : zexti   edx, t1d, 0x7
Instruction Commited: (1)3695 PCState: (0x409aef=>0x409af2).(0=>1)   LEA_R_M : lea   eax, DS:[rdx + 0xffffffffffffffd0]
Instruction Commited: (1)3696 PCState: (0x409af2=>0x409af4).(0=>1)   CMP_R_I : limm   t1b, 0x9
Instruction Commited: (1)3697 PCState: (0x409af2=>0x409af4).(1=>2)   CMP_R_I : sub   t0b, al, t1b
Instruction Commited: (1)3698 PCState: (0x409af4=>0x409af6).(0=>1)   JBE_I : rdip   t1, %ctrl153, 
Instruction Commited: (1)3699 PCState: (0x409af4=>0x409af6).(1=>2)   JBE_I : limm   t2, 0xffffffffffffffe2
Instruction Commited: (1)3700 PCState: (0x409af4=>0x409af6).(2=>3)   JBE_I : wrip   , t1, t2
Instruction Commited: (1)3701 PCState: (0x409af6=>0x409af9).(0=>1)   SAL_R_I : slli   edi, edi, 0x8
Instruction Commited: (1)3702 PCState: (0x409af9=>0x409afc).(0=>1)   INC_R : addi   r8d, r8d, 0x1
Instruction Commited: (1)3703 PCState: (0x409afc=>0x409aff).(0=>1)   INC_R : addi   rsi, rsi, 0x1
Instruction Commited: (1)3704 PCState: (0x409aff=>0x409b01).(0=>1)   OR_R_R : or   edi, edi, ecx
Instruction Commited: (1)3705 PCState: (0x409b01=>0x409b04).(0=>1)   CMP_R_I : limm   t1b, 0x2e
Instruction Commited: (1)3706 PCState: (0x409b01=>0x409b04).(1=>2)   CMP_R_I : sub   t0b, dl, t1b
Instruction Commited: (1)3707 PCState: (0x409b04=>0x409b06).(0=>1)   JNZ_I : rdip   t1, %ctrl153, 
Instruction Commited: (1)3708 PCState: (0x409b04=>0x409b06).(1=>2)   JNZ_I : limm   t2, 0xa
Instruction Commited: (1)3709 PCState: (0x409b04=>0x409b10).(2=>3)   JNZ_I : wrip   , t1, t2
Instruction Commited: (1)3809 PCState: (0x409b10=>0x409b14).(0=>1)   CMP_R_I : limm   t1d, 0x2
Instruction Commited: (1)3810 PCState: (0x409b10=>0x409b14).(1=>2)   CMP_R_I : sub   t0d, r8d, t1d
Instruction Commited: (1)3811 PCState: (0x409b14=>0x409b16).(0=>1)   JNLE_I : rdip   t1, %ctrl153, 
Instruction Commited: (1)3812 PCState: (0x409b14=>0x409b16).(1=>2)   JNLE_I : limm   t2, 0xd
Instruction Commited: (1)3813 PCState: (0x409b14=>0x409b23).(2=>3)   JNLE_I : wrip   , t1, t2
Instruction Commited: (1)3850 PCState: (0x409b23=>0x409b29).(0=>1)   CMP_R_I : limm   t1d, 0x20400
Instruction Commited: (1)3851 PCState: (0x409b23=>0x409b29).(1=>2)   CMP_R_I : sub   t0d, edi, t1d
Instruction Commited: (1)3852 PCState: (0x409b29=>0x409b2f).(0=>1)   JBE_I : rdip   t1, %ctrl153, 
Instruction Commited: (1)3853 PCState: (0x409b29=>0x409b2f).(1=>2)   JBE_I : limm   t2, 0xdc
Instruction Commited: (1)3854 PCState: (0x409b29=>0x409b2f).(2=>3)   JBE_I : wrip   , t1, t2
Instruction Commited: (1)3855 PCState: (0x409b2f=>0x409b35).(0=>1)   MOV_P_R : rdip   t7d, %ctrl153, 
Instruction Commited: (1)3856 PCState: (0x409b2f=>0x409b35).(1=>2)   MOV_P_R : st   edi, DS:[t7 + 0x1899fb]
Instruction Commited: (1)3857 PCState: (0x409b35=>0x409b3a).(0=>1)   CALL_NEAR_I : limm   t1, 0x4a6
Instruction Commited: (1)3858 PCState: (0x409b35=>0x409b3a).(1=>2)   CALL_NEAR_I : rdip   t7, %ctrl153, 
Instruction Commited: (1)3859 PCState: (0x409b35=>0x409b3a).(2=>3)   CALL_NEAR_I : stis   t7, SS:[rsp + 0xfffffffffffffff8]
Instruction Commited: (1)3860 PCState: (0x409b35=>0x409b3a).(3=>4)   CALL_NEAR_I : subi   rsp, rsp, 0x8
Instruction Commited: (1)3861 PCState: (0x409b35=>0x409fe0).(4=>5)   CALL_NEAR_I : wrip   , t7, t1
Instruction Commited: (1)3862 PCState: (0x409fe0=>0x409fe5).(0=>1)   MOV_R_I : limm   esi, 0x8
Instruction Commited: (1)3863 PCState: (0x409fe5=>0x409fea).(0=>1)   MOV_R_I : limm   edi, 0x20
Instruction Commited: (1)3864 PCState: (0x409fea=>0x409fef).(0=>1)   JMP_I : rdip   t1, %ctrl153, 
Instruction Commited: (1)3865 PCState: (0x409fea=>0x409fef).(1=>2)   JMP_I : limm   t2, 0xfffffffffffffd11
Instruction Commited: (1)3866 PCState: (0x409fea=>0x409d00).(2=>3)   JMP_I : wrip   , t1, t2
Instruction Commited: (1)3867 PCState: (0x409d00=>0x409d05).(0=>1)   MOV_M_R : st   r13, DS:[rsp + 0xffffffffffffffe8]
Instruction Commited: (1)3868 PCState: (0x409d05=>0x409d0a).(0=>1)   MOV_M_R : st   r14, DS:[rsp + 0xfffffffffffffff0]
Instruction Commited: (1)3869 PCState: (0x409d0a=>0x409d0d).(0=>1)   XOR_R_R : xor   r13d, r13d, r13d
Instruction Commited: (1)3870 PCState: (0x409d0d=>0x409d12).(0=>1)   MOV_M_R : st   r15, DS:[rsp + 0xfffffffffffffff8]
Instruction Commited: (1)3871 PCState: (0x409d12=>0x409d17).(0=>1)   MOV_M_R : st   rbx, DS:[rsp + 0xffffffffffffffd0]
Instruction Commited: (1)3872 PCState: (0x409d17=>0x409d1a).(0=>1)   XOR_R_R : xor   r14d, r14d, r14d
Instruction Commited: (1)3873 PCState: (0x409d1a=>0x409d1f).(0=>1)   MOV_M_R : st   rbp, DS:[rsp + 0xffffffffffffffd8]
Instruction Commited: (1)3874 PCState: (0x409d1f=>0x409d24).(0=>1)   MOV_M_R : st   r12, DS:[rsp + 0xffffffffffffffe0]
Instruction Commited: (1)3875 PCState: (0x409d24=>0x409d28).(0=>1)   SUB_R_I : limm   t1, 0x48
Instruction Commited: (1)3876 PCState: (0x409d24=>0x409d28).(1=>2)   SUB_R_I : sub   rsp, rsp, t1
Instruction Commited: (1)3877 PCState: (0x409d28=>0x409d2f).(0=>1)   MOV_R_P : rdip   t7, %ctrl153, 
Instruction Commited: (1)3878 PCState: (0x409d28=>0x409d2f).(1=>2)   MOV_R_P : ld   rax, DS:[t7 + 0x1897b1]
Instruction Commited: (1)3879 PCState: (0x409d2f=>0x409d32).(0=>1)   MOV_R_R : mov   r15, r15, rdi
Instruction Commited: (1)3880 PCState: (0x409d32=>0x409d3b).(0=>1)   MOV_M_I : limm   t1, 0
Instruction Commited: (1)3881 PCState: (0x409d32=>0x409d3b).(1=>2)   MOV_M_I : st   t1, DS:[rsp + 0x10]
Instruction Commited: (1)3882 PCState: (0x409d3b=>0x409d44).(0=>1)   MOV_M_I : limm   t1, 0
Instruction Commited: (1)3883 PCState: (0x409d3b=>0x409d44).(1=>2)   MOV_M_I : st   t1, DS:[rsp + 0x8]
Instruction Commited: (1)3884 PCState: (0x409d44=>0x409d48).(0=>1)   MOV_M_R : st   rsi, SS:[rsp]
Instruction Commited: (1)3885 PCState: (0x409d48=>0x409d4b).(0=>1)   TEST_R_R : and   t0, rax, rax
Instruction Commited: (1)3886 PCState: (0x409d4b=>0x409d4d).(0=>1)   JZ_I : rdip   t1, %ctrl153, 
Instruction Commited: (1)3887 PCState: (0x409d4b=>0x409d4d).(1=>2)   JZ_I : limm   t2, 0x35
Instruction Commited: (1)3888 PCState: (0x409d4b=>0x409d4d).(2=>3)   JZ_I : wrip   , t1, t2
Instruction Commited: (1)3889 PCState: (0x409d4d=>0x409d54).(0=>1)   MOV_R_P : rdip   t7, %ctrl153, 
Instruction Commited: (1)3890 PCState: (0x409d4d=>0x409d54).(1=>2)   MOV_R_P : ld   rdx, DS:[t7 + 0x1897bc]
Instruction Commited: (1)3891 PCState: (0x409d54=>0x409d57).(0=>1)   MOV_R_R : mov   rcx, rcx, rax
Instruction Commited: (1)3892 PCState: (0x409d57=>0x409d5f).(0=>1)   LEA_R_M : lea   rax, DS:[8*rdx]
Instruction Commited: (1)3893 PCState: (0x409d5f=>0x409d62).(0=>1)   SUB_R_R : sub   rax, rax, rdx
Instruction Commited: (1)3894 PCState: (0x409d62=>0x409d66).(0=>1)   LEA_R_M : lea   rax, DS:[8*rax + rcx]
Instruction Commited: (1)3895 PCState: (0x409d66=>0x409d69).(0=>1)   CMP_R_R : sub   t0, rax, rcx
Instruction Commited: (1)3896 PCState: (0x409d69=>0x409d6b).(0=>1)   JBE_I : rdip   t1, %ctrl153, 
Instruction Commited: (1)3897 PCState: (0x409d69=>0x409d6b).(1=>2)   JBE_I : limm   t2, 0x17
Instruction Commited: (1)3898 PCState: (0x409d69=>0x409d6b).(2=>3)   JBE_I : wrip   , t1, t2
Instruction Commited: (0)3899 PCState: (0x409d6b=>0x409d6e).(0=>1)   NOP   
Instruction Commited: (0)3900 PCState: (0x409d6e=>0x409d70).(0=>1)   NOP   
Instruction Commited: (1)3901 PCState: (0x409d70=>0x409d73).(0=>1)   CMP_M_I : limm   t2d, 0x7
Instruction Commited: (1)3902 PCState: (0x409d70=>0x409d73).(1=>2)   CMP_M_I : ld   t1d, DS:[rcx]
Instruction Commited: (1)3903 PCState: (0x409d70=>0x409d73).(2=>3)   CMP_M_I : sub   t0d, t1d, t2d
Instruction Commited: (1)3904 PCState: (0x409d73=>0x409d79).(0=>1)   JZ_I : rdip   t1, %ctrl153, 
Instruction Commited: (1)3905 PCState: (0x409d73=>0x409d79).(1=>2)   JZ_I : limm   t2, 0x1d9
Instruction Commited: (1)3906 PCState: (0x409d73=>0x409d79).(2=>3)   JZ_I : wrip   , t1, t2
Instruction Commited: (1)3907 PCState: (0x409d79=>0x409d7d).(0=>1)   ADD_R_I : limm   t1, 0x38
Instruction Commited: (1)3908 PCState: (0x409d79=>0x409d7d).(1=>2)   ADD_R_I : add   rcx, rcx, t1
Instruction Commited: (1)3909 PCState: (0x409d7d=>0x409d80).(0=>1)   CMP_R_R : sub   t0, rax, rcx
Instruction Commited: (1)3910 PCState: (0x409d80=>0x409d82).(0=>1)   JNBE_I : rdip   t1, %ctrl153, 
Instruction Commited: (1)3911 PCState: (0x409d80=>0x409d82).(1=>2)   JNBE_I : limm   t2, 0xffffffffffffffee
Instruction Commited: (1)3912 PCState: (0x409d80=>0x409d70).(2=>3)   JNBE_I : wrip   , t1, t2
Instruction Commited: (1)3956 PCState: (0x409d70=>0x409d73).(0=>1)   CMP_M_I : limm   t2d, 0x7
Instruction Commited: (1)3957 PCState: (0x409d70=>0x409d73).(1=>2)   CMP_M_I : ld   t1d, DS:[rcx]
Instruction Commited: (1)3958 PCState: (0x409d70=>0x409d73).(2=>3)   CMP_M_I : sub   t0d, t1d, t2d
Instruction Commited: (1)3959 PCState: (0x409d73=>0x409d79).(0=>1)   JZ_I : rdip   t1, %ctrl153, 
Instruction Commited: (1)3960 PCState: (0x409d73=>0x409d79).(1=>2)   JZ_I : limm   t2, 0x1d9
Instruction Commited: (1)3961 PCState: (0x409d73=>0x409d79).(2=>3)   JZ_I : wrip   , t1, t2
Instruction Commited: (1)3962 PCState: (0x409d79=>0x409d7d).(0=>1)   ADD_R_I : limm   t1, 0x38
Instruction Commited: (1)3963 PCState: (0x409d79=>0x409d7d).(1=>2)   ADD_R_I : add   rcx, rcx, t1
Instruction Commited: (1)3964 PCState: (0x409d7d=>0x409d80).(0=>1)   CMP_R_R : sub   t0, rax, rcx
Instruction Commited: (1)3965 PCState: (0x409d80=>0x409d82).(0=>1)   JNBE_I : rdip   t1, %ctrl153, 
Instruction Commited: (1)3966 PCState: (0x409d80=>0x409d82).(1=>2)   JNBE_I : limm   t2, 0xffffffffffffffee
Instruction Commited: (1)3967 PCState: (0x409d80=>0x409d70).(2=>3)   JNBE_I : wrip   , t1, t2
Instruction Commited: (1)4021 PCState: (0x409d70=>0x409d73).(0=>1)   CMP_M_I : limm   t2d, 0x7
Instruction Commited: (1)4022 PCState: (0x409d70=>0x409d73).(1=>2)   CMP_M_I : ld   t1d, DS:[rcx]
Instruction Commited: (1)4023 PCState: (0x409d70=>0x409d73).(2=>3)   CMP_M_I : sub   t0d, t1d, t2d
Instruction Commited: (1)4024 PCState: (0x409d73=>0x409d79).(0=>1)   JZ_I : rdip   t1, %ctrl153, 
Instruction Commited: (1)4025 PCState: (0x409d73=>0x409d79).(1=>2)   JZ_I : limm   t2, 0x1d9
Instruction Commited: (1)4026 PCState: (0x409d73=>0x409d79).(2=>3)   JZ_I : wrip   , t1, t2
Instruction Commited: (1)4027 PCState: (0x409d79=>0x409d7d).(0=>1)   ADD_R_I : limm   t1, 0x38
Instruction Commited: (1)4028 PCState: (0x409d79=>0x409d7d).(1=>2)   ADD_R_I : add   rcx, rcx, t1
Instruction Commited: (1)4029 PCState: (0x409d7d=>0x409d80).(0=>1)   CMP_R_R : sub   t0, rax, rcx
Instruction Commited: (1)4030 PCState: (0x409d80=>0x409d82).(0=>1)   JNBE_I : rdip   t1, %ctrl153, 
Instruction Commited: (1)4031 PCState: (0x409d80=>0x409d82).(1=>2)   JNBE_I : limm   t2, 0xffffffffffffffee
Instruction Commited: (1)4032 PCState: (0x409d80=>0x409d70).(2=>3)   JNBE_I : wrip   , t1, t2
Instruction Commited: (1)4094 PCState: (0x409d70=>0x409d73).(0=>1)   CMP_M_I : limm   t2d, 0x7
Instruction Commited: (1)4095 PCState: (0x409d70=>0x409d73).(1=>2)   CMP_M_I : ld   t1d, DS:[rcx]
Instruction Commited: (1)4096 PCState: (0x409d70=>0x409d73).(2=>3)   CMP_M_I : sub   t0d, t1d, t2d
Instruction Commited: (1)4097 PCState: (0x409d73=>0x409d79).(0=>1)   JZ_I : rdip   t1, %ctrl153, 
Instruction Commited: (1)4098 PCState: (0x409d73=>0x409d79).(1=>2)   JZ_I : limm   t2, 0x1d9
Instruction Commited: (1)4099 PCState: (0x409d73=>0x409d79).(2=>3)   JZ_I : wrip   , t1, t2
Instruction Commited: (1)4100 PCState: (0x409d79=>0x409d7d).(0=>1)   ADD_R_I : limm   t1, 0x38
Instruction Commited: (1)4101 PCState: (0x409d79=>0x409d7d).(1=>2)   ADD_R_I : add   rcx, rcx, t1
Instruction Commited: (1)4102 PCState: (0x409d7d=>0x409d80).(0=>1)   CMP_R_R : sub   t0, rax, rcx
Instruction Commited: (1)4103 PCState: (0x409d80=>0x409d82).(0=>1)   JNBE_I : rdip   t1, %ctrl153, 
Instruction Commited: (1)4104 PCState: (0x409d80=>0x409d82).(1=>2)   JNBE_I : limm   t2, 0xffffffffffffffee
Instruction Commited: (1)4105 PCState: (0x409d80=>0x409d70).(2=>3)   JNBE_I : wrip   , t1, t2
Instruction Commited: (1)4167 PCState: (0x409d70=>0x409d73).(0=>1)   CMP_M_I : limm   t2d, 0x7
Instruction Commited: (1)4168 PCState: (0x409d70=>0x409d73).(1=>2)   CMP_M_I : ld   t1d, DS:[rcx]
Instruction Commited: (1)4169 PCState: (0x409d70=>0x409d73).(2=>3)   CMP_M_I : sub   t0d, t1d, t2d
Instruction Commited: (1)4170 PCState: (0x409d73=>0x409d79).(0=>1)   JZ_I : rdip   t1, %ctrl153, 
Instruction Commited: (1)4171 PCState: (0x409d73=>0x409d79).(1=>2)   JZ_I : limm   t2, 0x1d9
Instruction Commited: (1)4172 PCState: (0x409d73=>0x409d79).(2=>3)   JZ_I : wrip   , t1, t2
Instruction Commited: (1)4173 PCState: (0x409d79=>0x409d7d).(0=>1)   ADD_R_I : limm   t1, 0x38
Instruction Commited: (1)4174 PCState: (0x409d79=>0x409d7d).(1=>2)   ADD_R_I : add   rcx, rcx, t1
Instruction Commited: (1)4175 PCState: (0x409d7d=>0x409d80).(0=>1)   CMP_R_R : sub   t0, rax, rcx
Instruction Commited: (1)4240 PCState: (0x409d7d=>0x409d80).(0=>1)   CMP_R_R : sub   t0, rax, rcx
Instruction Commited: (1)4241 PCState: (0x409d80=>0x409d82).(0=>1)   JNBE_I : rdip   t1, %ctrl153, 
Instruction Commited: (1)4242 PCState: (0x409d80=>0x409d82).(1=>2)   JNBE_I : limm   t2, 0xffffffffffffffee
Instruction Commited: (1)4243 PCState: (0x409d80=>0x409d82).(2=>3)   JNBE_I : wrip   , t1, t2
Instruction Commited: (1)4328 PCState: (0x409d82=>0x409d85).(0=>1)   TEST_R_R : and   t0, r13, r13
Instruction Commited: (1)4329 PCState: (0x409d85=>0x409d88).(0=>1)   SETZ_R : movi   dl, dl, 0x1
Instruction Commited: (1)4330 PCState: (0x409d85=>0x409d88).(1=>2)   SETZ_R : movi   dl, dl, 0
Instruction Commited: (1)4331 PCState: (0x409d88=>0x409d8a).(0=>1)   XOR_R_R : xor   eax, eax, eax
Instruction Commited: (1)4332 PCState: (0x409d8a=>0x409d8e).(0=>1)   CMP_R_I : limm   t1, 0x20
Instruction Commited: (1)4333 PCState: (0x409d8a=>0x409d8e).(1=>2)   CMP_R_I : sub   t0, r15, t1
Instruction Commited: (1)4334 PCState: (0x409d8e=>0x409d91).(0=>1)   SETBE_R : movi   al, al, 0x1
Instruction Commited: (1)4335 PCState: (0x409d8e=>0x409d91).(1=>2)   SETBE_R : movi   al, al, 0
Instruction Commited: (1)4336 PCState: (0x409d91=>0x409d93).(0=>1)   TEST_R_R : and   t0d, edx, eax
Instruction Commited: (1)4337 PCState: (0x409d93=>0x409d95).(0=>1)   JZ_I : rdip   t1, %ctrl153, 
Instruction Commited: (1)4338 PCState: (0x409d93=>0x409d95).(1=>2)   JZ_I : limm   t2, 0x23
Instruction Commited: (1)4339 PCState: (0x409d93=>0x409d95).(2=>3)   JZ_I : wrip   , t1, t2
Instruction Commited: (1)4340 PCState: (0x409d95=>0x409d9a).(0=>1)   MOV_R_M : ld   rbx, DS:[rsp + 0x18]
Instruction Commited: (1)4341 PCState: (0x409d9a=>0x409d9f).(0=>1)   MOV_R_M : ld   rbp, DS:[rsp + 0x20]
Instruction Commited: (1)4342 PCState: (0x409d9f=>0x409da4).(0=>1)   MOV_R_M : ld   r12, DS:[rsp + 0x28]
Instruction Commited: (1)4343 PCState: (0x409da4=>0x409da9).(0=>1)   MOV_R_M : ld   r13, DS:[rsp + 0x30]
Instruction Commited: (1)4344 PCState: (0x409da9=>0x409dae).(0=>1)   MOV_R_M : ld   r14, DS:[rsp + 0x38]
Instruction Commited: (1)4345 PCState: (0x409dae=>0x409db3).(0=>1)   MOV_R_M : ld   r15, DS:[rsp + 0x40]
Instruction Commited: (1)4346 PCState: (0x409db3=>0x409db7).(0=>1)   ADD_R_I : limm   t1, 0x48
Instruction Commited: (1)4347 PCState: (0x409db3=>0x409db7).(1=>2)   ADD_R_I : add   rsp, rsp, t1
Instruction Commited: (1)4348 PCState: (0x409db7=>0x409db8).(0=>1)   RET_NEAR : ld   t1, SS:[rsp]
Instruction Commited: (1)4349 PCState: (0x409db7=>0x409db8).(1=>2)   RET_NEAR : addi   rsp, rsp, 0x8
Instruction Commited: (1)4350 PCState: (0x409db7=>0x409b3a).(2=>3)   RET_NEAR : wripi   , t1, 0
Instruction Commited: (1)4351 PCState: (0x409b3a=>0x409b3d).(0=>1)   TEST_R_R : and   t0, r15, r15
Instruction Commited: (1)4352 PCState: (0x409b3d=>0x409b3f).(0=>1)   JZ_I : rdip   t1, %ctrl153, 
Instruction Commited: (1)4353 PCState: (0x409b3d=>0x409b3f).(1=>2)   JZ_I : limm   t2, 0xc
Instruction Commited: (1)4354 PCState: (0x409b3d=>0x409b4b).(2=>3)   JZ_I : wrip   , t1, t2
Instruction Commited: (1)4389 PCState: (0x409b4b=>0x409b52).(0=>1)   MOV_R_P : rdip   t7, %ctrl153, 
Instruction Commited: (1)4390 PCState: (0x409b4b=>0x409b52).(1=>2)   MOV_R_P : ld   rdx, DS:[t7 + 0x1892a6]
Instruction Commited: (1)4391 PCState: (0x409b52=>0x409b55).(0=>1)   MOV_R_R : mov   rsi, rsi, r14
Instruction Commited: (1)4392 PCState: (0x409b55=>0x409b58).(0=>1)   MOV_R_R : mov   edi, edi, r13d
Instruction Commited: (1)4393 PCState: (0x409b58=>0x409b5d).(0=>1)   CALL_NEAR_I : limm   t1, 0xc713
Instruction Commited: (1)4394 PCState: (0x409b58=>0x409b5d).(1=>2)   CALL_NEAR_I : rdip   t7, %ctrl153, 
Instruction Commited: (1)4395 PCState: (0x409b58=>0x409b5d).(2=>3)   CALL_NEAR_I : stis   t7, SS:[rsp + 0xfffffffffffffff8]
Instruction Commited: (1)4396 PCState: (0x409b58=>0x409b5d).(3=>4)   CALL_NEAR_I : subi   rsp, rsp, 0x8
Instruction Commited: (1)4397 PCState: (0x409b58=>0x416270).(4=>5)   CALL_NEAR_I : wrip   , t7, t1
Instruction Commited: (1)4448 PCState: (0x416270=>0x416275).(0=>1)   JMP_I : rdip   t1, %ctrl153, 
Instruction Commited: (1)4449 PCState: (0x416270=>0x416275).(1=>2)   JMP_I : limm   t2, 0xffffffffffffff6b
Instruction Commited: (1)4450 PCState: (0x416270=>0x4161e0).(2=>3)   JMP_I : wrip   , t1, t2
Instruction Commited: (1)4454 PCState: (0x4161e0=>0x4161e5).(0=>1)   MOV_R_I : limm   eax, 0
Instruction Commited: (1)4455 PCState: (0x4161e5=>0x4161ea).(0=>1)   MOV_M_R : st   rbx, DS:[rsp + 0xffffffffffffffe8]
Instruction Commited: (1)4456 PCState: (0x4161ea=>0x4161ef).(0=>1)   MOV_M_R : st   rbp, DS:[rsp + 0xfffffffffffffff0]
Instruction Commited: (1)4457 PCState: (0x4161ef=>0x4161f4).(0=>1)   MOV_M_R : st   r12, DS:[rsp + 0xfffffffffffffff8]
Instruction Commited: (1)4458 PCState: (0x4161f4=>0x4161f7).(0=>1)   MOV_R_R : mov   rbx, rbx, rdx
Instruction Commited: (1)4459 PCState: (0x4161f7=>0x4161fb).(0=>1)   SUB_R_I : limm   t1, 0x18
Instruction Commited: (1)4460 PCState: (0x4161f7=>0x4161fb).(1=>2)   SUB_R_I : sub   rsp, rsp, t1
Instruction Commited: (1)4461 PCState: (0x4161fb=>0x4161fd).(0=>1)   XOR_R_R : xor   edx, edx, edx
Instruction Commited: (1)4462 PCState: (0x4161fd=>0x416200).(0=>1)   TEST_R_R : and   t0, rax, rax
Instruction Commited: (1)4463 PCState: (0x416200=>0x416203).(0=>1)   MOV_R_R : mov   r12d, r12d, edi
Instruction Commited: (1)4464 PCState: (0x416203=>0x416206).(0=>1)   MOV_R_R : mov   rbp, rbp, rsi
Instruction Commited: (1)4465 PCState: (0x416206=>0x416208).(0=>1)   JZ_I : rdip   t1, %ctrl153, 
Instruction Commited: (1)4466 PCState: (0x416206=>0x416208).(1=>2)   JZ_I : limm   t2, 0x10
Instruction Commited: (1)4467 PCState: (0x416206=>0x416218).(2=>3)   JZ_I : wrip   , t1, t2
Instruction Commited: (1)4512 PCState: (0x416218=>0x41621a).(0=>1)   TEST_R_R : and   t0d, edx, edx
Instruction Commited: (1)4513 PCState: (0x41621a=>0x416220).(0=>1)   MOV_P_R : rdip   t7d, %ctrl153, 
Instruction Commited: (1)4514 PCState: (0x41621a=>0x416220).(1=>2)   MOV_P_R : st   edx, DS:[t7 + 0x16a590]
Instruction Commited: (1)4515 PCState: (0x416220=>0x416222).(0=>1)   JZ_I : rdip   t1, %ctrl153, 
Instruction Commited: (1)4516 PCState: (0x416220=>0x416222).(1=>2)   JZ_I : limm   t2, 0x3f
Instruction Commited: (1)4517 PCState: (0x416220=>0x416261).(2=>3)   JZ_I : wrip   , t1, t2
Instruction Commited: (1)4576 PCState: (0x416261=>0x416268).(0=>1)   MOVZX_W_R_P : rdip   t7d, %ctrl153, 
Instruction Commited: (1)4577 PCState: (0x416261=>0x416268).(1=>2)   MOVZX_W_R_P : ld   t1w, DS:[t7 + 0x16a778]
Instruction Commited: (1)4578 PCState: (0x416261=>0x416268).(2=>3)   MOVZX_W_R_P : zexti   edi, t1d, 0xf
Instruction Commited: (1)4579 PCState: (0x416268=>0x41626d).(0=>1)   CALL_NEAR_I : limm   t1, 0x3c43
Instruction Commited: (1)4580 PCState: (0x416268=>0x41626d).(1=>2)   CALL_NEAR_I : rdip   t7, %ctrl153, 
Instruction Commited: (1)4581 PCState: (0x416268=>0x41626d).(2=>3)   CALL_NEAR_I : stis   t7, SS:[rsp + 0xfffffffffffffff8]
Instruction Commited: (1)4582 PCState: (0x416268=>0x41626d).(3=>4)   CALL_NEAR_I : subi   rsp, rsp, 0x8
Instruction Commited: (1)4583 PCState: (0x416268=>0x419eb0).(4=>5)   CALL_NEAR_I : wrip   , t7, t1
Instruction Commited: (1)4623 PCState: (0x419eb0=>0x419eb4).(0=>1)   FNSTCW_M : rdval   t1w, %ctrl193, 
Instruction Commited: (1)4624 PCState: (0x419eb0=>0x419eb4).(1=>2)   FNSTCW_M : st   t1w, DS:[rsp + 0xfffffffffffffffe]
Instruction Commited: (1)4625 PCState: (0x419eb4=>0x419eb9).(0=>1)   MOVZX_W_R_M : ld   t1w, DS:[rsp + 0xfffffffffffffffe]
Instruction Commited: (1)4626 PCState: (0x419eb4=>0x419eb9).(1=>2)   MOVZX_W_R_M : zexti   eax, t1d, 0xf
Instruction Commited: (1)4627 PCState: (0x419eb9=>0x419ebe).(0=>1)   AND_R_I : limm   t1w, 0xf3f
Instruction Commited: (1)4628 PCState: (0x419eb9=>0x419ebe).(1=>2)   AND_R_I : and   di, di, t1w
Instruction Commited: (1)4629 PCState: (0x419ebe=>0x419ec2).(0=>1)   AND_R_I : limm   t1w, 0xf0c0
Instruction Commited: (1)4630 PCState: (0x419ebe=>0x419ec2).(1=>2)   AND_R_I : and   ax, ax, t1w
Instruction Commited: (1)4631 PCState: (0x419ec2=>0x419ec4).(0=>1)   OR_R_R : or   edi, edi, eax
Instruction Commited: (1)4632 PCState: (0x419ec4=>0x419ec9).(0=>1)   MOV_M_R : st   di, DS:[rsp + 0xfffffffffffffffe]
Instruction Commited: (1)4700 PCState: (0x419ec9=>0x419ecd).(0=>1)   FLDCW_M : ld   t1w, DS:[rsp + 0xfffffffffffffffe]
Instruction Commited: (1)4701 PCState: (0x419ec9=>0x419ecd).(1=>2)   FLDCW_M : wrval   %ctrl193, t1w, 
Instruction Commited: (1)4702 PCState: (0x419ecd=>0x419ece).(0=>1)   RET_NEAR : ld   t1, SS:[rsp]
Instruction Commited: (1)4703 PCState: (0x419ecd=>0x419ece).(1=>2)   RET_NEAR : addi   rsp, rsp, 0x8
Instruction Commited: (1)4704 PCState: (0x419ecd=>0x41626d).(2=>3)   RET_NEAR : wripi   , t1, 0
Instruction Commited: (1)4705 PCState: (0x41626d=>0x41626f).(0=>1)   JMP_I : rdip   t1, %ctrl153, 
Instruction Commited: (1)4706 PCState: (0x41626d=>0x41626f).(1=>2)   JMP_I : limm   t2, 0xffffffffffffffb3
Instruction Commited: (1)4707 PCState: (0x41626d=>0x416222).(2=>3)   JMP_I : wrip   , t1, t2
Instruction Commited: (1)4788 PCState: (0x416222=>0x416229).(0=>1)   MOV_P_R : rdip   t7d, %ctrl153, 
Instruction Commited: (1)4789 PCState: (0x416222=>0x416229).(1=>2)   MOV_P_R : st   r12d, DS:[t7 + 0x17d36f]
Instruction Commited: (1)4790 PCState: (0x416229=>0x416230).(0=>1)   MOV_P_R : rdip   t7, %ctrl153, 
Instruction Commited: (1)4791 PCState: (0x416229=>0x416230).(1=>2)   MOV_P_R : st   rbp, DS:[t7 + 0x17d370]
Instruction Commited: (1)4792 PCState: (0x416230=>0x416237).(0=>1)   MOV_P_R : rdip   t7, %ctrl153, 
Instruction Commited: (1)4793 PCState: (0x416230=>0x416237).(1=>2)   MOV_P_R : st   rbx, DS:[t7 + 0x17cbc1]
Instruction Commited: (1)4794 PCState: (0x416237=>0x41623c).(0=>1)   CALL_NEAR_I : limm   t1, 0xffffffffffffff34
Instruction Commited: (1)4795 PCState: (0x416237=>0x41623c).(1=>2)   CALL_NEAR_I : rdip   t7, %ctrl153, 
Instruction Commited: (1)4796 PCState: (0x416237=>0x41623c).(2=>3)   CALL_NEAR_I : stis   t7, SS:[rsp + 0xfffffffffffffff8]
Instruction Commited: (1)4797 PCState: (0x416237=>0x41623c).(3=>4)   CALL_NEAR_I : subi   rsp, rsp, 0x8
Instruction Commited: (1)4798 PCState: (0x416237=>0x416170).(4=>5)   CALL_NEAR_I : wrip   , t7, t1
Instruction Commited: (1)4860 PCState: (0x416170=>0x416175).(0=>1)   MOV_M_R : st   rbx, DS:[rsp + 0xfffffffffffffff0]
Instruction Commited: (1)4861 PCState: (0x416175=>0x41617a).(0=>1)   MOV_M_R : st   rbp, DS:[rsp + 0xfffffffffffffff8]
Instruction Commited: (1)4862 PCState: (0x41617a=>0x41617e).(0=>1)   SUB_R_I : limm   t1, 0x18
Instruction Commited: (1)4863 PCState: (0x41617a=>0x41617e).(1=>2)   SUB_R_I : sub   rsp, rsp, t1
Instruction Commited: (1)4864 PCState: (0x41617e=>0x416184).(0=>1)   MOV_R_P : rdip   t7d, %ctrl153, 
Instruction Commited: (1)4865 PCState: (0x41617e=>0x416184).(1=>2)   MOV_R_P : ld   eax, DS:[t7 + 0x17d40c]
Instruction Commited: (1)4866 PCState: (0x416184=>0x416186).(0=>1)   TEST_R_R : and   t0d, eax, eax
Instruction Commited: (1)4867 PCState: (0x416186=>0x416188).(0=>1)   JZ_I : rdip   t1, %ctrl153, 
Instruction Commited: (1)4868 PCState: (0x416186=>0x416188).(1=>2)   JZ_I : limm   t2, 0xf
Instruction Commited: (1)4869 PCState: (0x416186=>0x416188).(2=>3)   JZ_I : wrip   , t1, t2
Instruction Commited: (1)4870 PCState: (0x416188=>0x41618d).(0=>1)   MOV_R_M : ld   rbx, DS:[rsp + 0x8]
Instruction Commited: (1)4871 PCState: (0x41618d=>0x416192).(0=>1)   MOV_R_M : ld   rbp, DS:[rsp + 0x10]
Instruction Commited: (1)4872 PCState: (0x416192=>0x416196).(0=>1)   ADD_R_I : limm   t1, 0x18
Instruction Commited: (1)4873 PCState: (0x416192=>0x416196).(1=>2)   ADD_R_I : add   rsp, rsp, t1
Instruction Commited: (1)4874 PCState: (0x416196=>0x416197).(0=>1)   RET_NEAR : ld   t1, SS:[rsp]
Instruction Commited: (1)4875 PCState: (0x416196=>0x416197).(1=>2)   RET_NEAR : addi   rsp, rsp, 0x8
Instruction Commited: (1)4876 PCState: (0x416196=>0x41623c).(2=>3)   RET_NEAR : wripi   , t1, 0
Instruction Commited: (1)4877 PCState: (0x41623c=>0x416241).(0=>1)   CALL_NEAR_I : limm   t1, 0xfffffffffffffa2f
Instruction Commited: (1)4878 PCState: (0x41623c=>0x416241).(1=>2)   CALL_NEAR_I : rdip   t7, %ctrl153, 
Instruction Commited: (1)4879 PCState: (0x41623c=>0x416241).(2=>3)   CALL_NEAR_I : stis   t7, SS:[rsp + 0xfffffffffffffff8]
Instruction Commited: (1)4880 PCState: (0x41623c=>0x416241).(3=>4)   CALL_NEAR_I : subi   rsp, rsp, 0x8
Instruction Commited: (1)4881 PCState: (0x41623c=>0x415c70).(4=>5)   CALL_NEAR_I : wrip   , t7, t1
Instruction Commited: (1)4919 PCState: (0x415c70=>0x415c72).(0=>1)   PUSH_R : stis   r13, SS:[rsp + 0xfffffffffffffff8]
Instruction Commited: (1)4920 PCState: (0x415c70=>0x415c72).(1=>2)   PUSH_R : subi   rsp, rsp, 0x8
Instruction Commited: (1)4921 PCState: (0x415c72=>0x415c74).(0=>1)   PUSH_R : stis   r12, SS:[rsp + 0xfffffffffffffff8]
Instruction Commited: (1)4922 PCState: (0x415c72=>0x415c74).(1=>2)   PUSH_R : subi   rsp, rsp, 0x8
Instruction Commited: (1)4923 PCState: (0x415c74=>0x415c75).(0=>1)   PUSH_R : stis   rbp, SS:[rsp + 0xfffffffffffffff8]
Instruction Commited: (1)4924 PCState: (0x415c74=>0x415c75).(1=>2)   PUSH_R : subi   rsp, rsp, 0x8
Instruction Commited: (1)4925 PCState: (0x415c75=>0x415c76).(0=>1)   PUSH_R : stis   rbx, SS:[rsp + 0xfffffffffffffff8]
Instruction Commited: (1)4926 PCState: (0x415c75=>0x415c76).(1=>2)   PUSH_R : subi   rsp, rsp, 0x8
Instruction Commited: (1)4927 PCState: (0x415c76=>0x415c7a).(0=>1)   SUB_R_I : limm   t1, 0x8
Instruction Commited: (1)4928 PCState: (0x415c76=>0x415c7a).(1=>2)   SUB_R_I : sub   rsp, rsp, t1
Instruction Commited: (1)4929 PCState: (0x415c7a=>0x415c7c).(0=>1)   RDTSC : rdtsc   t1d, %ctrl26, 
Instruction Commited: (1)4930 PCState: (0x415c7a=>0x415c7c).(1=>2)   RDTSC : mov   eax, eax, t1d
Instruction Commited: (1)4931 PCState: (0x415c7a=>0x415c7c).(2=>3)   RDTSC : srli   rdx, t1, 0x20
Instruction Commited: (1)4932 PCState: (0x415c7c=>0x415c80).(0=>1)   SAL_R_I : slli   rdx, rdx, 0x20
Instruction Commited: (1)4933 PCState: (0x415c80=>0x415c82).(0=>1)   MOV_R_R : mov   eax, eax, eax
Instruction Commited: (1)4934 PCState: (0x415c82=>0x415c85).(0=>1)   OR_R_R : or   rdx, rdx, rax
Instruction Commited: (1)4935 PCState: (0x415c85=>0x415c8d).(0=>1)   CMP_P_I : limm   t2, 0
Instruction Commited: (1)4936 PCState: (0x415c85=>0x415c8d).(1=>2)   CMP_P_I : rdip   t7, %ctrl153, 
Instruction Commited: (1)4937 PCState: (0x415c85=>0x415c8d).(2=>3)   CMP_P_I : ld   t1, DS:[t7 + 0x17d8b3]
Instruction Commited: (1)4938 PCState: (0x415c85=>0x415c8d).(3=>4)   CMP_P_I : sub   t0, t1, t2
Instruction Commited: (1)4939 PCState: (0x415c8d=>0x415c94).(0=>1)   MOV_P_R : rdip   t7, %ctrl153, 
Instruction Commited: (1)4940 PCState: (0x415c8d=>0x415c94).(1=>2)   MOV_P_R : st   rdx, DS:[t7 + 0x17d82c]
Instruction Commited: (1)4941 PCState: (0x415c94=>0x415c96).(0=>1)   JNZ_I : rdip   t1, %ctrl153, 
Instruction Commited: (1)4942 PCState: (0x415c94=>0x415c96).(1=>2)   JNZ_I : limm   t2, 0xe
[...]
Instruction Commited: (1)10360 PCState: (0x40ddb3=>0x40ddb7).(0=>1)   CMP_R_I : limm   t1, 0x20
Instruction Commited: (1)10361 PCState: (0x40ddb3=>0x40ddb7).(1=>2)   CMP_R_I : sub   t0, rax, t1
Instruction Commited: (1)10362 PCState: (0x40ddb7=>0x40ddbd).(0=>1)   CMOVB_R_M : ld   t1, DS:[rsp + 0x40]
Instruction Commited: (1)10363 PCState: (0x40ddb7=>0x40ddbd).(1=>2)   CMOVB_R_M : mov   rdx, rdx, rdx
Instruction Commited: (1)10364 PCState: (0x40ddb7=>0x40ddbd).(2=>3)   CMOVB_R_M : mov   rdx, rdx, t1
Instruction Commited: (1)10365 PCState: (0x40ddbd=>0x40ddc0).(0=>1)   CMP_R_R : sub   t0, rcx, rdx
Instruction Commited: (1)10366 PCState: (0x40ddc0=>0x40ddc5).(0=>1)   MOV_M_R : st   rdx, DS:[rsp + 0x40]
Instruction Commited: (1)10367 PCState: (0x40ddc5=>0x40ddc7).(0=>1)   JB_I : rdip   t1, %ctrl153, 
Instruction Commited: (1)10368 PCState: (0x40ddc5=>0x40ddc7).(1=>2)   JB_I : limm   t2, 0x4e
Instruction Commited: (1)10369 PCState: (0x40ddc5=>0x40ddc7).(2=>3)   JB_I : wrip   , t1, t2
Instruction Commited: (1)10442 PCState: (0x40ddc7=>0x40ddcb).(0=>1)   MOV_R_M : ld   eax, DS:[rsp + 0x40]
Instruction Commited: (1)10443 PCState: (0x40ddcb=>0x40ddce).(0=>1)   SHR_R_I : srli   eax, eax, 0x3
Instruction Commited: (1)10444 PCState: (0x40ddce=>0x40ddd1).(0=>1)   LEA_R_M : lea   edx, DS:[rax + 0xfffffffffffffffe]
Instruction Commited: (1)10445 PCState: (0x40ddd1=>0x40ddd5).(0=>1)   LEA_R_M : lea   rbp, DS:[8*rdx + rdi]
Instruction Commited: (1)10446 PCState: (0x40ddd5=>0x40ddd9).(0=>1)   MOV_R_M : ld   r12, DS:[rbp + 0x30]
Instruction Commited: (1)10447 PCState: (0x40ddd9=>0x40dddc).(0=>1)   TEST_R_R : and   t0, r12, r12
Instruction Commited: (1)10448 PCState: (0x40dddc=>0x40ddde).(0=>1)   JZ_I : rdip   t1, %ctrl153, 
Instruction Commited: (1)10449 PCState: (0x40dddc=>0x40ddde).(1=>2)   JZ_I : limm   t2, 0x37
Instruction Commited: (1)10450 PCState: (0x40dddc=>0x40de15).(2=>3)   JZ_I : wrip   , t1, t2
Instruction Commited: (1)10714 PCState: (0x40de15=>0x40de1e).(0=>1)   CMP_M_I : limm   t2, 0x1ff
Instruction Commited: (1)10715 PCState: (0x40de15=>0x40de1e).(1=>2)   CMP_M_I : ld   t1, DS:[rsp + 0x40]
Instruction Commited: (1)10716 PCState: (0x40de15=>0x40de1e).(2=>3)   CMP_M_I : sub   t0, t1, t2
Instruction Commited: (1)10717 PCState: (0x40de1e=>0x40de20).(0=>1)   JNBE_I : rdip   t1, %ctrl153, 
Instruction Commited: (1)10718 PCState: (0x40de1e=>0x40de20).(1=>2)   JNBE_I : limm   t2, 0x64
Instruction Commited: (1)10719 PCState: (0x40de1e=>0x40de20).(2=>3)   JNBE_I : wrip   , t1, t2
Instruction Commited: (1)10720 PCState: (0x40de20=>0x40de25).(0=>1)   MOV_R_M : ld   r15d, DS:[rsp + 0x40]
Instruction Commited: (1)10721 PCState: (0x40de25=>0x40de29).(0=>1)   SHR_R_I : srli   r15d, r15d, 0x3
Instruction Commited: (1)10722 PCState: (0x40de29=>0x40de2d).(0=>1)   LEA_R_M : lea   eax, DS:[r15 + r15]
Instruction Commited: (1)10723 PCState: (0x40de2d=>0x40de2f).(0=>1)   MOV_R_R : mov   eax, eax, eax
Instruction Commited: (1)10724 PCState: (0x40de2f=>0x40de37).(0=>1)   LEA_R_M : lea   rdi, DS:[8*rax + r13 + 0x88]
Instruction Commited: (1)10725 PCState: (0x40de37=>0x40de3b).(0=>1)   MOV_R_M : ld   r12, DS:[rdi + 0x18]
Instruction Commited: (1)10726 PCState: (0x40de3b=>0x40de3e).(0=>1)   CMP_R_R : sub   t0, r12, rdi
Instruction Commited: (1)10727 PCState: (0x40de3e=>0x40de40).(0=>1)   JZ_I : rdip   t1, %ctrl153, 
Instruction Commited: (1)10728 PCState: (0x40de3e=>0x40de40).(1=>2)   JZ_I : limm   t2, 0x64
Instruction Commited: (1)10729 PCState: (0x40de3e=>0x40dea4).(2=>3)   JZ_I : wrip   , t1, t2
Instruction Commited: (1)10841 PCState: (0x40dea4=>0x40dea9).(0=>1)   MOV_R_M : ld   rdx, DS:[rsp + 0x40]
Instruction Commited: (1)10842 PCState: (0x40dea9=>0x40deae).(0=>1)   MOV_R_M : ld   rcx, DS:[rsp + 0x40]
Instruction Commited: (1)10843 PCState: (0x40deae=>0x40deb5).(0=>1)   LEA_R_M : lea   r14, DS:[r13 + 0x98]
Instruction Commited: (1)10844 PCState: (0x40deb5=>0x40deb9).(0=>1)   OR_R_I : limm   t1, 0x1
Instruction Commited: (1)10845 PCState: (0x40deb5=>0x40deb9).(1=>2)   OR_R_I : or   rdx, rdx, t1
Instruction Commited: (1)10846 PCState: (0x40deb9=>0x40debd).(0=>1)   ADD_R_I : limm   t1, 0x20
Instruction Commited: (1)10847 PCState: (0x40deb9=>0x40debd).(1=>2)   ADD_R_I : add   rcx, rcx, t1
Instruction Commited: (1)10848 PCState: (0x40debd=>0x40dec2).(0=>1)   MOV_M_R : st   rdx, DS:[rsp + 0x38]
Instruction Commited: (1)10849 PCState: (0x40dec2=>0x40dec7).(0=>1)   MOV_M_R : st   rdx, DS:[rsp + 0x8]
Instruction Commited: (1)10850 PCState: (0x40dec7=>0x40decb).(0=>1)   MOV_M_R : st   rcx, SS:[rsp]
Instruction Commited: (1)10851 PCState: (0x40decb=>0x40decd).(0=>1)   JMP_I : rdip   t1, %ctrl153, 
Instruction Commited: (1)10852 PCState: (0x40decb=>0x40decd).(1=>2)   JMP_I : limm   t2, 0x49
Instruction Commited: (1)10853 PCState: (0x40decb=>0x40df16).(2=>3)   JMP_I : wrip   , t1, t2
Instruction Commited: (1)10854 PCState: (0x40df16=>0x40df1d).(0=>1)   MOV_R_M : ld   r12, DS:[r13 + 0xb0]
Instruction Commited: (1)10855 PCState: (0x40df1d=>0x40df20).(0=>1)   CMP_R_R : sub   t0, r12, r14
Instruction Commited: (1)10856 PCState: (0x40df20=>0x40df26).(0=>1)   JZ_I : rdip   t1, %ctrl153, 
Instruction Commited: (1)10857 PCState: (0x40df20=>0x40df26).(1=>2)   JZ_I : limm   t2, 0x173
Instruction Commited: (1)10858 PCState: (0x40df20=>0x40e099).(2=>3)   JZ_I : wrip   , t1, t2
Instruction Commited: (1)10859 PCState: (0x40e099=>0x40e0a2).(0=>1)   CMP_M_I : limm   t2, 0x1ff
Instruction Commited: (1)10860 PCState: (0x40e099=>0x40e0a2).(1=>2)   CMP_M_I : ld   t1, DS:[rsp + 0x40]
Instruction Commited: (1)10861 PCState: (0x40e099=>0x40e0a2).(2=>3)   CMP_M_I : sub   t0, t1, t2
Instruction Commited: (1)10862 PCState: (0x40e0a2=>0x40e0a4).(0=>1)   JBE_I : rdip   t1, %ctrl153, 
Instruction Commited: (1)10863 PCState: (0x40e0a2=>0x40e0a4).(1=>2)   JBE_I : limm   t2, 0x2a
Instruction Commited: (1)10864 PCState: (0x40e0a2=>0x40e0ce).(2=>3)   JBE_I : wrip   , t1, t2
Instruction Commited: (1)10865 PCState: (0x40e0ce=>0x40e0d1).(0=>1)   INC_R : addi   r15d, r15d, 0x1
Instruction Commited: (1)10866 PCState: (0x40e0d1=>0x40e0d6).(0=>1)   MOV_R_I : limm   esi, 0x1
Instruction Commited: (1)10867 PCState: (0x40e0d6=>0x40e0d9).(0=>1)   MOV_R_R : mov   r8d, r8d, r15d
Instruction Commited: (1)10868 PCState: (0x40e0d9=>0x40e0dd).(0=>1)   LEA_R_M : lea   eax, DS:[r15 + r15]
Instruction Commited: (1)10869 PCState: (0x40e0dd=>0x40e0e1).(0=>1)   AND_R_I : limm   t1d, 0x1f
Instruction Commited: (1)10870 PCState: (0x40e0dd=>0x40e0e1).(1=>2)   AND_R_I : and   r15d, r15d, t1d
Instruction Commited: (1)10871 PCState: (0x40e0e1=>0x40e0e5).(0=>1)   SHR_R_I : srli   r8d, r8d, 0x5
Instruction Commited: (1)10872 PCState: (0x40e0e5=>0x40e0e8).(0=>1)   MOV_R_R : mov   ecx, ecx, r15d
Instruction Commited: (1)10873 PCState: (0x40e0e8=>0x40e0eb).(0=>1)   MOV_R_R : mov   r9d, r9d, r8d
Instruction Commited: (1)10874 PCState: (0x40e0eb=>0x40e0ed).(0=>1)   MOV_R_R : mov   eax, eax, eax
Instruction Commited: (1)10875 PCState: (0x40e0ed=>0x40e0ef).(0=>1)   SAL_R_R : sll   esi, esi, ecx
Instruction Commited: (1)10876 PCState: (0x40e0ef=>0x40e0f7).(0=>1)   MOV_R_M : ld   r10d, DS:[4*r9 + r13 + 0x898]
Instruction Commited: (1)10877 PCState: (0x40e0f7=>0x40e0ff).(0=>1)   LEA_R_M : lea   rdi, DS:[8*rax + r13 + 0x88]
Instruction Commited: (0)10878 PCState: (0x40e0ff=>0x40e100).(0=>1)   NOP   
Instruction Commited: (1)10879 PCState: (0x40e100=>0x40e103).(0=>1)   CMP_R_R : sub   t0d, esi, r10d
Instruction Commited: (1)10880 PCState: (0x40e103=>0x40e106).(0=>1)   SETNBE_R : movi   dl, dl, 0x1
Instruction Commited: (1)10881 PCState: (0x40e103=>0x40e106).(1=>2)   SETNBE_R : movi   dl, dl, 0
Instruction Commited: (1)10882 PCState: (0x40e106=>0x40e108).(0=>1)   TEST_R_R : and   t0d, esi, esi
Instruction Commited: (1)10883 PCState: (0x40e108=>0x40e10b).(0=>1)   SETZ_R : movi   al, al, 0x1
Instruction Commited: (1)10884 PCState: (0x40e108=>0x40e10b).(1=>2)   SETZ_R : movi   al, al, 0
Instruction Commited: (1)10885 PCState: (0x40e10b=>0x40e10d).(0=>1)   OR_R_R : or   eax, eax, edx
Instruction Commited: (1)10886 PCState: (0x40e10d=>0x40e10f).(0=>1)   TEST_R_I : limm   t1b, 0x1
Instruction Commited: (1)10887 PCState: (0x40e10d=>0x40e10f).(1=>2)   TEST_R_I : and   t0b, al, t1b
Instruction Commited: (1)10982 PCState: (0x40e10d=>0x40e10f).(1=>2)   TEST_R_I : and   t0b, al, t1b
Instruction Commited: (1)10983 PCState: (0x40e10f=>0x40e111).(0=>1)   JZ_I : rdip   t1, %ctrl153, 
Instruction Commited: (1)10984 PCState: (0x40e10f=>0x40e111).(1=>2)   JZ_I : limm   t2, 0x3d
Instruction Commited: (1)10985 PCState: (0x40e10f=>0x40e111).(2=>3)   JZ_I : wrip   , t1, t2
Instruction Commited: (1)10986 PCState: (0x40e111=>0x40e114).(0=>1)   INC_R : addi   r8d, r8d, 0x1
Instruction Commited: (1)10987 PCState: (0x40e114=>0x40e118).(0=>1)   CMP_R_I : limm   t1d, 0x3
Instruction Commited: (1)10988 PCState: (0x40e114=>0x40e118).(1=>2)   CMP_R_I : sub   t0d, r8d, t1d
Instruction Commited: (1)10989 PCState: (0x40e118=>0x40e11e).(0=>1)   JNBE_I : rdip   t1, %ctrl153, 
Instruction Commited: (1)10990 PCState: (0x40e118=>0x40e11e).(1=>2)   JNBE_I : limm   t2, 0xf5
Instruction Commited: (1)10991 PCState: (0x40e118=>0x40e11e).(2=>3)   JNBE_I : wrip   , t1, t2
Instruction Commited: (1)10992 PCState: (0x40e11e=>0x40e121).(0=>1)   MOV_R_R : mov   r9d, r9d, r8d
Instruction Commited: (1)10993 PCState: (0x40e121=>0x40e129).(0=>1)   MOV_R_M : ld   r10d, DS:[4*r9 + r13 + 0x898]
Instruction Commited: (1)10994 PCState: (0x40e129=>0x40e12c).(0=>1)   TEST_R_R : and   t0d, r10d, r10d
Instruction Commited: (1)10995 PCState: (0x40e12c=>0x40e12e).(0=>1)   JZ_I : rdip   t1, %ctrl153, 
Instruction Commited: (1)10996 PCState: (0x40e12c=>0x40e12e).(1=>2)   JZ_I : limm   t2, 0xffffffffffffffe3
Instruction Commited: (1)10997 PCState: (0x40e12c=>0x40e111).(2=>3)   JZ_I : wrip   , t1, t2
Instruction Commited: (1)10998 PCState: (0x40e111=>0x40e114).(0=>1)   INC_R : addi   r8d, r8d, 0x1
Instruction Commited: (1)10999 PCState: (0x40e114=>0x40e118).(0=>1)   CMP_R_I : limm   t1d, 0x3
Instruction Commited: (1)11000 PCState: (0x40e114=>0x40e118).(1=>2)   CMP_R_I : sub   t0d, r8d, t1d
Instruction Commited: (1)11001 PCState: (0x40e118=>0x40e11e).(0=>1)   JNBE_I : rdip   t1, %ctrl153, 
Instruction Commited: (1)11002 PCState: (0x40e118=>0x40e11e).(1=>2)   JNBE_I : limm   t2, 0xf5
Instruction Commited: (1)11003 PCState: (0x40e118=>0x40e11e).(2=>3)   JNBE_I : wrip   , t1, t2
Instruction Commited: (1)11004 PCState: (0x40e11e=>0x40e121).(0=>1)   MOV_R_R : mov   r9d, r9d, r8d
Instruction Commited: (1)11005 PCState: (0x40e121=>0x40e129).(0=>1)   MOV_R_M : ld   r10d, DS:[4*r9 + r13 + 0x898]
Instruction Commited: (1)11006 PCState: (0x40e129=>0x40e12c).(0=>1)   TEST_R_R : and   t0d, r10d, r10d
Instruction Commited: (1)11007 PCState: (0x40e12c=>0x40e12e).(0=>1)   JZ_I : rdip   t1, %ctrl153, 
Instruction Commited: (1)11008 PCState: (0x40e12c=>0x40e12e).(1=>2)   JZ_I : limm   t2, 0xffffffffffffffe3
Instruction Commited: (1)11009 PCState: (0x40e12c=>0x40e111).(2=>3)   JZ_I : wrip   , t1, t2
Instruction Commited: (1)11010 PCState: (0x40e111=>0x40e114).(0=>1)   INC_R : addi   r8d, r8d, 0x1
Instruction Commited: (1)11011 PCState: (0x40e114=>0x40e118).(0=>1)   CMP_R_I : limm   t1d, 0x3
Instruction Commited: (1)11012 PCState: (0x40e114=>0x40e118).(1=>2)   CMP_R_I : sub   t0d, r8d, t1d
Instruction Commited: (1)11013 PCState: (0x40e118=>0x40e11e).(0=>1)   JNBE_I : rdip   t1, %ctrl153, 
Instruction Commited: (1)11014 PCState: (0x40e118=>0x40e11e).(1=>2)   JNBE_I : limm   t2, 0xf5
Instruction Commited: (1)11015 PCState: (0x40e118=>0x40e11e).(2=>3)   JNBE_I : wrip   , t1, t2
Instruction Commited: (1)11016 PCState: (0x40e11e=>0x40e121).(0=>1)   MOV_R_R : mov   r9d, r9d, r8d
Instruction Commited: (1)11017 PCState: (0x40e121=>0x40e129).(0=>1)   MOV_R_M : ld   r10d, DS:[4*r9 + r13 + 0x898]
Instruction Commited: (1)11018 PCState: (0x40e129=>0x40e12c).(0=>1)   TEST_R_R : and   t0d, r10d, r10d
Instruction Commited: (1)11019 PCState: (0x40e12c=>0x40e12e).(0=>1)   JZ_I : rdip   t1, %ctrl153, 
Instruction Commited: (1)11020 PCState: (0x40e12c=>0x40e12e).(1=>2)   JZ_I : limm   t2, 0xffffffffffffffe3
Instruction Commited: (1)11021 PCState: (0x40e12c=>0x40e111).(2=>3)   JZ_I : wrip   , t1, t2
Instruction Commited: (1)11022 PCState: (0x40e111=>0x40e114).(0=>1)   INC_R : addi   r8d, r8d, 0x1
Instruction Commited: (1)11023 PCState: (0x40e114=>0x40e118).(0=>1)   CMP_R_I : limm   t1d, 0x3
Instruction Commited: (1)11024 PCState: (0x40e114=>0x40e118).(1=>2)   CMP_R_I : sub   t0d, r8d, t1d
Instruction Commited: (1)11025 PCState: (0x40e118=>0x40e11e).(0=>1)   JNBE_I : rdip   t1, %ctrl153, 
Instruction Commited: (1)11026 PCState: (0x40e118=>0x40e11e).(1=>2)   JNBE_I : limm   t2, 0xf5
Instruction Commited: (1)11027 PCState: (0x40e118=>0x40e213).(2=>3)   JNBE_I : wrip   , t1, t2
Instruction Commited: (1)11102 PCState: (0x40e213=>0x40e21a).(0=>1)   MOV_R_M : ld   rbx, DS:[r13 + 0x88]
Instruction Commited: (1)11103 PCState: (0x40e21a=>0x40e21e).(0=>1)   MOV_R_M : ld   rbp, DS:[rbx + 0x8]
Instruction Commited: (1)11104 PCState: (0x40e21e=>0x40e221).(0=>1)   MOV_R_R : mov   r12, r12, rbx
Instruction Commited: (1)11105 PCState: (0x40e221=>0x40e225).(0=>1)   AND_R_I : limm   t1, 0xfffffffffffffff8
Instruction Commited: (1)11106 PCState: (0x40e221=>0x40e225).(1=>2)   AND_R_I : and   rbp, rbp, t1
Instruction Commited: (1)11107 PCState: (0x40e225=>0x40e229).(0=>1)   CMP_M_R : ld   t1, SS:[rsp]
Instruction Commited: (1)11108 PCState: (0x40e225=>0x40e229).(1=>2)   CMP_M_R : sub   t0, t1, rbp
Instruction Commited: (1)11109 PCState: (0x40e229=>0x40e22f).(0=>1)   JBE_I : rdip   t1, %ctrl153, 
Instruction Commited: (1)11110 PCState: (0x40e229=>0x40e22f).(1=>2)   JBE_I : limm   t2, 0xca
Instruction Commited: (1)11111 PCState: (0x40e229=>0x40e2f9).(2=>3)   JBE_I : wrip   , t1, t2
Instruction Commited: (1)11268 PCState: (0x40e2f9=>0x40e2fe).(0=>1)   ADD_R_M : ld   t1, DS:[rsp + 0x40]
Instruction Commited: (1)11269 PCState: (0x40e2f9=>0x40e2fe).(1=>2)   ADD_R_M : add   rbx, rbx, t1
Instruction Commited: (1)11270 PCState: (0x40e2fe=>0x40e303).(0=>1)   SUB_R_M : ld   t1, DS:[rsp + 0x40]
Instruction Commited: (1)11271 PCState: (0x40e2fe=>0x40e303).(1=>2)   SUB_R_M : sub   rbp, rbp, t1
Instruction Commited: (1)11272 PCState: (0x40e303=>0x40e309).(0=>1)   OR_M_I : limm   t2, 0x5
Instruction Commited: (1)11273 PCState: (0x40e303=>0x40e309).(1=>2)   OR_M_I : ldst   t1, DS:[rsp + 0x40]
Instruction Commited: (1)11274 PCState: (0x40e303=>0x40e309).(2=>3)   OR_M_I : or   t1, t1, t2
Instruction Commited: (1)11275 PCState: (0x40e303=>0x40e309).(3=>4)   OR_M_I : st   t1, DS:[rsp + 0x40]
Instruction Commited: (1)11276 PCState: (0x40e309=>0x40e30e).(0=>1)   MOV_R_M : ld   rax, DS:[rsp + 0x38]
Instruction Commited: (1)11277 PCState: (0x40e30e=>0x40e315).(0=>1)   CMP_R_I : limm   t1, 0x592480
Instruction Commited: (1)11278 PCState: (0x40e30e=>0x40e315).(1=>2)   CMP_R_I : sub   t0, r13, t1
Instruction Commited: (1)11388 PCState: (0x40e315=>0x40e31b).(0=>1)   CMOVNZ_R_M : ld   t1, DS:[rsp + 0x40]
Instruction Commited: (1)11389 PCState: (0x40e315=>0x40e31b).(1=>2)   CMOVNZ_R_M : mov   rax, rax, rax
Instruction Commited: (1)11390 PCState: (0x40e315=>0x40e31b).(2=>3)   CMOVNZ_R_M : mov   rax, rax, t1
Instruction Commited: (1)11391 PCState: (0x40e31b=>0x40e31f).(0=>1)   OR_R_I : limm   t1, 0x1
Instruction Commited: (1)11392 PCState: (0x40e31b=>0x40e31f).(1=>2)   OR_R_I : or   rbp, rbp, t1
Instruction Commited: (1)11393 PCState: (0x40e31f=>0x40e326).(0=>1)   MOV_M_R : st   rbx, DS:[r13 + 0x88]
Instruction Commited: (1)11394 PCState: (0x40e326=>0x40e32b).(0=>1)   MOV_M_R : st   rax, DS:[r12 + 0x8]
Instruction Commited: (1)11395 PCState: (0x40e32b=>0x40e330).(0=>1)   LEA_R_M : lea   rax, DS:[r12 + 0x10]
Instruction Commited: (1)11396 PCState: (0x40e330=>0x40e334).(0=>1)   MOV_M_R : st   rbp, DS:[rbx + 0x8]
Instruction Commited: (1)11397 PCState: (0x40e334=>0x40e339).(0=>1)   JMP_I : rdip   t1, %ctrl153, 
Instruction Commited: (1)11398 PCState: (0x40e334=>0x40e339).(1=>2)   JMP_I : limm   t2, 0xfffffffffffffb3c
Instruction Commited: (1)11399 PCState: (0x40e334=>0x40de75).(2=>3)   JMP_I : wrip   , t1, t2
Instruction Commited: (1)11400 PCState: (0x40de75=>0x40de79).(0=>1)   ADD_R_I : limm   t1, 0x48
Instruction Commited: (1)11401 PCState: (0x40de75=>0x40de79).(1=>2)   ADD_R_I : add   rsp, rsp, t1
Instruction Commited: (1)11402 PCState: (0x40de79=>0x40de7a).(0=>1)   POP_R : ldis   t1, SS:[rsp]
Instruction Commited: (1)11403 PCState: (0x40de79=>0x40de7a).(1=>2)   POP_R : addi   rsp, rsp, 0x8
Instruction Commited: (1)11404 PCState: (0x40de79=>0x40de7a).(2=>3)   POP_R : mov   rbx, rbx, t1
Instruction Commited: (1)11405 PCState: (0x40de7a=>0x40de7b).(0=>1)   POP_R : ldis   t1, SS:[rsp]
Instruction Commited: (1)11406 PCState: (0x40de7a=>0x40de7b).(1=>2)   POP_R : addi   rsp, rsp, 0x8
Instruction Commited: (1)11407 PCState: (0x40de7a=>0x40de7b).(2=>3)   POP_R : mov   rbp, rbp, t1
Instruction Commited: (1)11408 PCState: (0x40de7b=>0x40de7d).(0=>1)   POP_R : ldis   t1, SS:[rsp]
Instruction Commited: (1)11409 PCState: (0x40de7b=>0x40de7d).(1=>2)   POP_R : addi   rsp, rsp, 0x8
Instruction Commited: (1)11410 PCState: (0x40de7b=>0x40de7d).(2=>3)   POP_R : mov   r12, r12, t1
Instruction Commited: (1)11411 PCState: (0x40de7d=>0x40de7f).(0=>1)   POP_R : ldis   t1, SS:[rsp]
Instruction Commited: (1)11412 PCState: (0x40de7d=>0x40de7f).(1=>2)   POP_R : addi   rsp, rsp, 0x8
Instruction Commited: (1)11413 PCState: (0x40de7d=>0x40de7f).(2=>3)   POP_R : mov   r13, r13, t1
Instruction Commited: (1)11414 PCState: (0x40de7f=>0x40de81).(0=>1)   POP_R : ldis   t1, SS:[rsp]
Instruction Commited: (1)11415 PCState: (0x40de7f=>0x40de81).(1=>2)   POP_R : addi   rsp, rsp, 0x8
Instruction Commited: (1)11416 PCState: (0x40de7f=>0x40de81).(2=>3)   POP_R : mov   r14, r14, t1
Instruction Commited: (1)11417 PCState: (0x40de81=>0x40de83).(0=>1)   POP_R : ldis   t1, SS:[rsp]
Instruction Commited: (1)11418 PCState: (0x40de81=>0x40de83).(1=>2)   POP_R : addi   rsp, rsp, 0x8
Instruction Commited: (1)11419 PCState: (0x40de81=>0x40de83).(2=>3)   POP_R : mov   r15, r15, t1
Instruction Commited: (1)11420 PCState: (0x40de83=>0x40de84).(0=>1)   RET_NEAR : ld   t1, SS:[rsp]
Instruction Commited: (1)11421 PCState: (0x40de83=>0x40de84).(1=>2)   RET_NEAR : addi   rsp, rsp, 0x8
Instruction Commited: (1)11422 PCState: (0x40de83=>0x40f9f8).(2=>3)   RET_NEAR : wripi   , t1, 0
Instruction Commited: (1)11423 PCState: (0x40f9f8=>0x40f9fb).(0=>1)   TEST_R_R : and   t0, rax, rax
Instruction Commited: (1)11424 PCState: (0x40f9fb=>0x40f9fe).(0=>1)   MOV_R_R : mov   rbp, rbp, rax
Instruction Commited: (1)11425 PCState: (0x40f9fe=>0x40fa00).(0=>1)   JZ_I : rdip   t1, %ctrl153, 
Instruction Commited: (1)11426 PCState: (0x40f9fe=>0x40fa00).(1=>2)   JZ_I : limm   t2, 0x62
Instruction Commited: (1)11427 PCState: (0x40f9fe=>0x40fa00).(2=>3)   JZ_I : wrip   , t1, t2
Instruction Commited: (1)11428 PCState: (0x40fa05=>0x40fa08).(0=>1)   TEST_R_R : and   t0, rax, rax
Instruction Commited: (1)11429 PCState: (0x40fa08=>0x40fa0a).(0=>1)   JZ_I : rdip   t1, %ctrl153, 
Instruction Commited: (1)11430 PCState: (0x40fa08=>0x40fa0a).(1=>2)   JZ_I : limm   t2, 0x3f
Instruction Commited: (1)11431 PCState: (0x40fa08=>0x40fa0a).(2=>3)   JZ_I : wrip   , t1, t2
Instruction Commited: (1)11492 PCState: (0x40fa0a=>0x40fa0d).(0=>1)   MOV_R_R : mov   rdi, rdi, rbx
Instruction Commited: (1)11493 PCState: (0x40fa0d=>0x40fa12).(0=>1)   CALL_NEAR_I : limm   t1, 0xffffffffffbf05ee
Instruction Commited: (1)11494 PCState: (0x40fa0d=>0x40fa12).(1=>2)   CALL_NEAR_I : rdip   t7, %ctrl153, 
Instruction Commited: (1)11495 PCState: (0x40fa0d=>0x40fa12).(2=>3)   CALL_NEAR_I : stis   t7, SS:[rsp + 0xfffffffffffffff8]
Instruction Commited: (1)11496 PCState: (0x40fa0d=>0x40fa12).(3=>4)   CALL_NEAR_I : subi   rsp, rsp, 0x8
Instruction Commited: (1)11497 PCState: (0x40fa0d=>0).(4=>5)   CALL_NEAR_I : wrip   , t7, t1
