
---------- Begin Simulation Statistics ----------
sim_seconds                                  0.100000                       # Number of seconds simulated
sim_ticks                                100000000000                       # Number of ticks simulated
final_tick                               100000000000                       # Number of ticks from beginning of simulation (restored from checkpoints and never reset)
sim_freq                                 1000000000000                       # Frequency of simulated ticks
host_inst_rate                                  28119                       # Simulator instruction rate (inst/s)
host_op_rate                                    44184                       # Simulator op (including micro ops) rate (op/s)
host_tick_rate                               13226745                       # Simulator tick rate (ticks/s)
host_mem_usage                               67550520                       # Number of bytes of host memory used
host_seconds                                  7560.44                       # Real time elapsed on the host
sim_insts                                   212592027                       # Number of instructions simulated
sim_ops                                     334046914                       # Number of ops (including micro ops) simulated
system.voltage_domain.voltage                       1                       # Voltage in Volts
system.clk_domain.clock                          1000                       # Clock period in ticks
system.mem_ctrls0.pwrStateResidencyTicks::UNDEFINED 100000000000                       # Cumulative time (in ticks) in various power states
system.mem_ctrls0.bytes_read::.cpu.inst        289216                       # Number of bytes read from this memory
system.mem_ctrls0.bytes_read::.cpu.data        798528                       # Number of bytes read from this memory
system.mem_ctrls0.bytes_read::.l2.prefetcher     37096896                       # Number of bytes read from this memory
system.mem_ctrls0.bytes_read::total          38184640                       # Number of bytes read from this memory
system.mem_ctrls0.bytes_inst_read::.cpu.inst       289216                       # Number of instructions bytes read from this memory
system.mem_ctrls0.bytes_inst_read::total       289216                       # Number of instructions bytes read from this memory
system.mem_ctrls0.bytes_written::.writebacks     36780224                       # Number of bytes written to this memory
system.mem_ctrls0.bytes_written::total       36780224                       # Number of bytes written to this memory
system.mem_ctrls0.num_reads::.cpu.inst           4519                       # Number of read requests responded to by this memory
system.mem_ctrls0.num_reads::.cpu.data          12477                       # Number of read requests responded to by this memory
system.mem_ctrls0.num_reads::.l2.prefetcher       579639                       # Number of read requests responded to by this memory
system.mem_ctrls0.num_reads::total             596635                       # Number of read requests responded to by this memory
system.mem_ctrls0.num_writes::.writebacks       574691                       # Number of write requests responded to by this memory
system.mem_ctrls0.num_writes::total            574691                       # Number of write requests responded to by this memory
system.mem_ctrls0.bw_read::.cpu.inst          2892160                       # Total read bandwidth from this memory (bytes/s)
system.mem_ctrls0.bw_read::.cpu.data          7985280                       # Total read bandwidth from this memory (bytes/s)
system.mem_ctrls0.bw_read::.l2.prefetcher    370968960                       # Total read bandwidth from this memory (bytes/s)
system.mem_ctrls0.bw_read::total            381846400                       # Total read bandwidth from this memory (bytes/s)
system.mem_ctrls0.bw_inst_read::.cpu.inst      2892160                       # Instruction read bandwidth from this memory (bytes/s)
system.mem_ctrls0.bw_inst_read::total         2892160                       # Instruction read bandwidth from this memory (bytes/s)
system.mem_ctrls0.bw_write::.writebacks     367802240                       # Write bandwidth from this memory (bytes/s)
system.mem_ctrls0.bw_write::total           367802240                       # Write bandwidth from this memory (bytes/s)
system.mem_ctrls0.bw_total::.writebacks     367802240                       # Total bandwidth to/from this memory (bytes/s)
system.mem_ctrls0.bw_total::.cpu.inst         2892160                       # Total bandwidth to/from this memory (bytes/s)
system.mem_ctrls0.bw_total::.cpu.data         7985280                       # Total bandwidth to/from this memory (bytes/s)
system.mem_ctrls0.bw_total::.l2.prefetcher    370968960                       # Total bandwidth to/from this memory (bytes/s)
system.mem_ctrls0.bw_total::total           749648640                       # Total bandwidth to/from this memory (bytes/s)
system.mem_ctrls0.avgPriority_.writebacks::samples    574691.00                       # Average QoS priority value for accepted requests
system.mem_ctrls0.avgPriority_.cpu.inst::samples      4519.00                       # Average QoS priority value for accepted requests
system.mem_ctrls0.avgPriority_.cpu.data::samples     12477.00                       # Average QoS priority value for accepted requests
system.mem_ctrls0.avgPriority_.l2.prefetcher::samples    579639.00                       # Average QoS priority value for accepted requests
system.mem_ctrls0.priorityMinLatency     0.000000017492                       # per QoS priority minimum request to response latency (s)
system.mem_ctrls0.priorityMaxLatency     0.005413133652                       # per QoS priority maximum request to response latency (s)
system.mem_ctrls0.numReadWriteTurnArounds        34819                       # Number of turnarounds from READ to WRITE
system.mem_ctrls0.numWriteReadTurnArounds        34819                       # Number of turnarounds from WRITE to READ
system.mem_ctrls0.numStayReadState            1679424                       # Number of times bus staying in READ state
system.mem_ctrls0.numStayWriteState            540478                       # Number of times bus staying in WRITE state
system.mem_ctrls0.readReqs                     596635                       # Number of read requests accepted
system.mem_ctrls0.writeReqs                    574691                       # Number of write requests accepted
system.mem_ctrls0.readBursts                   596635                       # Number of DRAM read bursts, including those serviced by the write queue
system.mem_ctrls0.writeBursts                  574691                       # Number of DRAM write bursts, including those merged in the write queue
system.mem_ctrls0.bytesReadDRAM              38184640                       # Total number of bytes read from DRAM
system.mem_ctrls0.bytesReadWrQ                      0                       # Total number of bytes read from write queue
system.mem_ctrls0.bytesWritten               36776256                       # Total number of bytes written to DRAM
system.mem_ctrls0.bytesReadSys               38184640                       # Total read bytes from the system interface side
system.mem_ctrls0.bytesWrittenSys            36780224                       # Total written bytes from the system interface side
system.mem_ctrls0.servicedByWrQ                     0                       # Number of DRAM read bursts serviced by the write queue
system.mem_ctrls0.mergedWrBursts                    0                       # Number of DRAM write bursts merged with an existing one
system.mem_ctrls0.neitherReadNorWriteReqs            0                       # Number of requests that are neither read nor write
system.mem_ctrls0.perBankRdBursts::0            18553                       # Per bank write bursts
system.mem_ctrls0.perBankRdBursts::1            18804                       # Per bank write bursts
system.mem_ctrls0.perBankRdBursts::2            18946                       # Per bank write bursts
system.mem_ctrls0.perBankRdBursts::3            18865                       # Per bank write bursts
system.mem_ctrls0.perBankRdBursts::4            18729                       # Per bank write bursts
system.mem_ctrls0.perBankRdBursts::5            18715                       # Per bank write bursts
system.mem_ctrls0.perBankRdBursts::6            18704                       # Per bank write bursts
system.mem_ctrls0.perBankRdBursts::7            18752                       # Per bank write bursts
system.mem_ctrls0.perBankRdBursts::8            18692                       # Per bank write bursts
system.mem_ctrls0.perBankRdBursts::9            18613                       # Per bank write bursts
system.mem_ctrls0.perBankRdBursts::10           18579                       # Per bank write bursts
system.mem_ctrls0.perBankRdBursts::11           18586                       # Per bank write bursts
system.mem_ctrls0.perBankRdBursts::12           18679                       # Per bank write bursts
system.mem_ctrls0.perBankRdBursts::13           18634                       # Per bank write bursts
system.mem_ctrls0.perBankRdBursts::14           18547                       # Per bank write bursts
system.mem_ctrls0.perBankRdBursts::15           18557                       # Per bank write bursts
system.mem_ctrls0.perBankRdBursts::16           18483                       # Per bank write bursts
system.mem_ctrls0.perBankRdBursts::17           18498                       # Per bank write bursts
system.mem_ctrls0.perBankRdBursts::18           18607                       # Per bank write bursts
system.mem_ctrls0.perBankRdBursts::19           18629                       # Per bank write bursts
system.mem_ctrls0.perBankRdBursts::20           18641                       # Per bank write bursts
system.mem_ctrls0.perBankRdBursts::21           18603                       # Per bank write bursts
system.mem_ctrls0.perBankRdBursts::22           18629                       # Per bank write bursts
system.mem_ctrls0.perBankRdBursts::23           18580                       # Per bank write bursts
system.mem_ctrls0.perBankRdBursts::24           18636                       # Per bank write bursts
system.mem_ctrls0.perBankRdBursts::25           18658                       # Per bank write bursts
system.mem_ctrls0.perBankRdBursts::26           18611                       # Per bank write bursts
system.mem_ctrls0.perBankRdBursts::27           18616                       # Per bank write bursts
system.mem_ctrls0.perBankRdBursts::28           18705                       # Per bank write bursts
system.mem_ctrls0.perBankRdBursts::29           18648                       # Per bank write bursts
system.mem_ctrls0.perBankRdBursts::30           18552                       # Per bank write bursts
system.mem_ctrls0.perBankRdBursts::31           18584                       # Per bank write bursts
system.mem_ctrls0.perBankWrBursts::0            17922                       # Per bank write bursts
system.mem_ctrls0.perBankWrBursts::1            17923                       # Per bank write bursts
system.mem_ctrls0.perBankWrBursts::2            18039                       # Per bank write bursts
system.mem_ctrls0.perBankWrBursts::3            18050                       # Per bank write bursts
system.mem_ctrls0.perBankWrBursts::4            18050                       # Per bank write bursts
system.mem_ctrls0.perBankWrBursts::5            17976                       # Per bank write bursts
system.mem_ctrls0.perBankWrBursts::6            17987                       # Per bank write bursts
system.mem_ctrls0.perBankWrBursts::7            18050                       # Per bank write bursts
system.mem_ctrls0.perBankWrBursts::8            17987                       # Per bank write bursts
system.mem_ctrls0.perBankWrBursts::9            17924                       # Per bank write bursts
system.mem_ctrls0.perBankWrBursts::10           17891                       # Per bank write bursts
system.mem_ctrls0.perBankWrBursts::11           17923                       # Per bank write bursts
system.mem_ctrls0.perBankWrBursts::12           17923                       # Per bank write bursts
system.mem_ctrls0.perBankWrBursts::13           17922                       # Per bank write bursts
system.mem_ctrls0.perBankWrBursts::14           17905                       # Per bank write bursts
system.mem_ctrls0.perBankWrBursts::15           17923                       # Per bank write bursts
system.mem_ctrls0.perBankWrBursts::16           17923                       # Per bank write bursts
system.mem_ctrls0.perBankWrBursts::17           17922                       # Per bank write bursts
system.mem_ctrls0.perBankWrBursts::18           17921                       # Per bank write bursts
system.mem_ctrls0.perBankWrBursts::19           17891                       # Per bank write bursts
system.mem_ctrls0.perBankWrBursts::20           17922                       # Per bank write bursts
system.mem_ctrls0.perBankWrBursts::21           17954                       # Per bank write bursts
system.mem_ctrls0.perBankWrBursts::22           18018                       # Per bank write bursts
system.mem_ctrls0.perBankWrBursts::23           17939                       # Per bank write bursts
system.mem_ctrls0.perBankWrBursts::24           18017                       # Per bank write bursts
system.mem_ctrls0.perBankWrBursts::25           17959                       # Per bank write bursts
system.mem_ctrls0.perBankWrBursts::26           17948                       # Per bank write bursts
system.mem_ctrls0.perBankWrBursts::27           17977                       # Per bank write bursts
system.mem_ctrls0.perBankWrBursts::28           18019                       # Per bank write bursts
system.mem_ctrls0.perBankWrBursts::29           18007                       # Per bank write bursts
system.mem_ctrls0.perBankWrBursts::30           17923                       # Per bank write bursts
system.mem_ctrls0.perBankWrBursts::31           17894                       # Per bank write bursts
system.mem_ctrls0.numRdRetry                        0                       # Number of times read queue was full causing retry
system.mem_ctrls0.numWrRetry                        0                       # Number of times write queue was full causing retry
system.mem_ctrls0.totGap                  99999932000                       # Total gap between requests
system.mem_ctrls0.readPktSize::0                    0                       # Read request sizes (log2)
system.mem_ctrls0.readPktSize::1                    0                       # Read request sizes (log2)
system.mem_ctrls0.readPktSize::2                    0                       # Read request sizes (log2)
system.mem_ctrls0.readPktSize::3                    0                       # Read request sizes (log2)
system.mem_ctrls0.readPktSize::4                    0                       # Read request sizes (log2)
system.mem_ctrls0.readPktSize::5                    0                       # Read request sizes (log2)
system.mem_ctrls0.readPktSize::6               596635                       # Read request sizes (log2)
system.mem_ctrls0.writePktSize::0                   0                       # Write request sizes (log2)
system.mem_ctrls0.writePktSize::1                   0                       # Write request sizes (log2)
system.mem_ctrls0.writePktSize::2                   0                       # Write request sizes (log2)
system.mem_ctrls0.writePktSize::3                   0                       # Write request sizes (log2)
system.mem_ctrls0.writePktSize::4                   0                       # Write request sizes (log2)
system.mem_ctrls0.writePktSize::5                   0                       # Write request sizes (log2)
system.mem_ctrls0.writePktSize::6              574691                       # Write request sizes (log2)
system.mem_ctrls0.rdQLenPdf::0                 455591                       # What read queue length does an incoming req see
system.mem_ctrls0.rdQLenPdf::1                  69394                       # What read queue length does an incoming req see
system.mem_ctrls0.rdQLenPdf::2                  35485                       # What read queue length does an incoming req see
system.mem_ctrls0.rdQLenPdf::3                  23321                       # What read queue length does an incoming req see
system.mem_ctrls0.rdQLenPdf::4                  10255                       # What read queue length does an incoming req see
system.mem_ctrls0.rdQLenPdf::5                    979                       # What read queue length does an incoming req see
system.mem_ctrls0.rdQLenPdf::6                    707                       # What read queue length does an incoming req see
system.mem_ctrls0.rdQLenPdf::7                    601                       # What read queue length does an incoming req see
system.mem_ctrls0.rdQLenPdf::8                    302                       # What read queue length does an incoming req see
system.mem_ctrls0.rdQLenPdf::9                      0                       # What read queue length does an incoming req see
system.mem_ctrls0.rdQLenPdf::10                     0                       # What read queue length does an incoming req see
system.mem_ctrls0.rdQLenPdf::11                     0                       # What read queue length does an incoming req see
system.mem_ctrls0.rdQLenPdf::12                     0                       # What read queue length does an incoming req see
system.mem_ctrls0.rdQLenPdf::13                     0                       # What read queue length does an incoming req see
system.mem_ctrls0.rdQLenPdf::14                     0                       # What read queue length does an incoming req see
system.mem_ctrls0.rdQLenPdf::15                     0                       # What read queue length does an incoming req see
system.mem_ctrls0.rdQLenPdf::16                     0                       # What read queue length does an incoming req see
system.mem_ctrls0.rdQLenPdf::17                     0                       # What read queue length does an incoming req see
system.mem_ctrls0.rdQLenPdf::18                     0                       # What read queue length does an incoming req see
system.mem_ctrls0.rdQLenPdf::19                     0                       # What read queue length does an incoming req see
system.mem_ctrls0.rdQLenPdf::20                     0                       # What read queue length does an incoming req see
system.mem_ctrls0.rdQLenPdf::21                     0                       # What read queue length does an incoming req see
system.mem_ctrls0.rdQLenPdf::22                     0                       # What read queue length does an incoming req see
system.mem_ctrls0.rdQLenPdf::23                     0                       # What read queue length does an incoming req see
system.mem_ctrls0.rdQLenPdf::24                     0                       # What read queue length does an incoming req see
system.mem_ctrls0.rdQLenPdf::25                     0                       # What read queue length does an incoming req see
system.mem_ctrls0.rdQLenPdf::26                     0                       # What read queue length does an incoming req see
system.mem_ctrls0.rdQLenPdf::27                     0                       # What read queue length does an incoming req see
system.mem_ctrls0.rdQLenPdf::28                     0                       # What read queue length does an incoming req see
system.mem_ctrls0.rdQLenPdf::29                     0                       # What read queue length does an incoming req see
system.mem_ctrls0.rdQLenPdf::30                     0                       # What read queue length does an incoming req see
system.mem_ctrls0.rdQLenPdf::31                     0                       # What read queue length does an incoming req see
system.mem_ctrls0.rdQLenPdf::32                     0                       # What read queue length does an incoming req see
system.mem_ctrls0.rdQLenPdf::33                     0                       # What read queue length does an incoming req see
system.mem_ctrls0.rdQLenPdf::34                     0                       # What read queue length does an incoming req see
system.mem_ctrls0.rdQLenPdf::35                     0                       # What read queue length does an incoming req see
system.mem_ctrls0.rdQLenPdf::36                     0                       # What read queue length does an incoming req see
system.mem_ctrls0.rdQLenPdf::37                     0                       # What read queue length does an incoming req see
system.mem_ctrls0.rdQLenPdf::38                     0                       # What read queue length does an incoming req see
system.mem_ctrls0.rdQLenPdf::39                     0                       # What read queue length does an incoming req see
system.mem_ctrls0.rdQLenPdf::40                     0                       # What read queue length does an incoming req see
system.mem_ctrls0.rdQLenPdf::41                     0                       # What read queue length does an incoming req see
system.mem_ctrls0.rdQLenPdf::42                     0                       # What read queue length does an incoming req see
system.mem_ctrls0.rdQLenPdf::43                     0                       # What read queue length does an incoming req see
system.mem_ctrls0.rdQLenPdf::44                     0                       # What read queue length does an incoming req see
system.mem_ctrls0.rdQLenPdf::45                     0                       # What read queue length does an incoming req see
system.mem_ctrls0.rdQLenPdf::46                     0                       # What read queue length does an incoming req see
system.mem_ctrls0.rdQLenPdf::47                     0                       # What read queue length does an incoming req see
system.mem_ctrls0.rdQLenPdf::48                     0                       # What read queue length does an incoming req see
system.mem_ctrls0.rdQLenPdf::49                     0                       # What read queue length does an incoming req see
system.mem_ctrls0.rdQLenPdf::50                     0                       # What read queue length does an incoming req see
system.mem_ctrls0.rdQLenPdf::51                     0                       # What read queue length does an incoming req see
system.mem_ctrls0.rdQLenPdf::52                     0                       # What read queue length does an incoming req see
system.mem_ctrls0.rdQLenPdf::53                     0                       # What read queue length does an incoming req see
system.mem_ctrls0.rdQLenPdf::54                     0                       # What read queue length does an incoming req see
system.mem_ctrls0.rdQLenPdf::55                     0                       # What read queue length does an incoming req see
system.mem_ctrls0.rdQLenPdf::56                     0                       # What read queue length does an incoming req see
system.mem_ctrls0.rdQLenPdf::57                     0                       # What read queue length does an incoming req see
system.mem_ctrls0.rdQLenPdf::58                     0                       # What read queue length does an incoming req see
system.mem_ctrls0.rdQLenPdf::59                     0                       # What read queue length does an incoming req see
system.mem_ctrls0.rdQLenPdf::60                     0                       # What read queue length does an incoming req see
system.mem_ctrls0.rdQLenPdf::61                     0                       # What read queue length does an incoming req see
system.mem_ctrls0.rdQLenPdf::62                     0                       # What read queue length does an incoming req see
system.mem_ctrls0.rdQLenPdf::63                     0                       # What read queue length does an incoming req see
system.mem_ctrls0.wrQLenPdf::0                      1                       # What write queue length does an incoming req see
system.mem_ctrls0.wrQLenPdf::1                      1                       # What write queue length does an incoming req see
system.mem_ctrls0.wrQLenPdf::2                      1                       # What write queue length does an incoming req see
system.mem_ctrls0.wrQLenPdf::3                      1                       # What write queue length does an incoming req see
system.mem_ctrls0.wrQLenPdf::4                      1                       # What write queue length does an incoming req see
system.mem_ctrls0.wrQLenPdf::5                      1                       # What write queue length does an incoming req see
system.mem_ctrls0.wrQLenPdf::6                      1                       # What write queue length does an incoming req see
system.mem_ctrls0.wrQLenPdf::7                      1                       # What write queue length does an incoming req see
system.mem_ctrls0.wrQLenPdf::8                      1                       # What write queue length does an incoming req see
system.mem_ctrls0.wrQLenPdf::9                      1                       # What write queue length does an incoming req see
system.mem_ctrls0.wrQLenPdf::10                     1                       # What write queue length does an incoming req see
system.mem_ctrls0.wrQLenPdf::11                     1                       # What write queue length does an incoming req see
system.mem_ctrls0.wrQLenPdf::12                     1                       # What write queue length does an incoming req see
system.mem_ctrls0.wrQLenPdf::13                     1                       # What write queue length does an incoming req see
system.mem_ctrls0.wrQLenPdf::14                     1                       # What write queue length does an incoming req see
system.mem_ctrls0.wrQLenPdf::15                     1                       # What write queue length does an incoming req see
system.mem_ctrls0.wrQLenPdf::16                     1                       # What write queue length does an incoming req see
system.mem_ctrls0.wrQLenPdf::17                     1                       # What write queue length does an incoming req see
system.mem_ctrls0.wrQLenPdf::18                     1                       # What write queue length does an incoming req see
system.mem_ctrls0.wrQLenPdf::19                     1                       # What write queue length does an incoming req see
system.mem_ctrls0.wrQLenPdf::20                     1                       # What write queue length does an incoming req see
system.mem_ctrls0.wrQLenPdf::21                     1                       # What write queue length does an incoming req see
system.mem_ctrls0.wrQLenPdf::22                     1                       # What write queue length does an incoming req see
system.mem_ctrls0.wrQLenPdf::23                     1                       # What write queue length does an incoming req see
system.mem_ctrls0.wrQLenPdf::24                     1                       # What write queue length does an incoming req see
system.mem_ctrls0.wrQLenPdf::25                     1                       # What write queue length does an incoming req see
system.mem_ctrls0.wrQLenPdf::26                     1                       # What write queue length does an incoming req see
system.mem_ctrls0.wrQLenPdf::27                     1                       # What write queue length does an incoming req see
system.mem_ctrls0.wrQLenPdf::28                     1                       # What write queue length does an incoming req see
system.mem_ctrls0.wrQLenPdf::29                     1                       # What write queue length does an incoming req see
system.mem_ctrls0.wrQLenPdf::30                     1                       # What write queue length does an incoming req see
system.mem_ctrls0.wrQLenPdf::31                     1                       # What write queue length does an incoming req see
system.mem_ctrls0.wrQLenPdf::32                     1                       # What write queue length does an incoming req see
system.mem_ctrls0.wrQLenPdf::33                     1                       # What write queue length does an incoming req see
system.mem_ctrls0.wrQLenPdf::34                     1                       # What write queue length does an incoming req see
system.mem_ctrls0.wrQLenPdf::35                     1                       # What write queue length does an incoming req see
system.mem_ctrls0.wrQLenPdf::36                     1                       # What write queue length does an incoming req see
system.mem_ctrls0.wrQLenPdf::37                     1                       # What write queue length does an incoming req see
system.mem_ctrls0.wrQLenPdf::38                     1                       # What write queue length does an incoming req see
system.mem_ctrls0.wrQLenPdf::39                     1                       # What write queue length does an incoming req see
system.mem_ctrls0.wrQLenPdf::40                     1                       # What write queue length does an incoming req see
system.mem_ctrls0.wrQLenPdf::41                     1                       # What write queue length does an incoming req see
system.mem_ctrls0.wrQLenPdf::42                     1                       # What write queue length does an incoming req see
system.mem_ctrls0.wrQLenPdf::43                     1                       # What write queue length does an incoming req see
system.mem_ctrls0.wrQLenPdf::44                     1                       # What write queue length does an incoming req see
system.mem_ctrls0.wrQLenPdf::45                     1                       # What write queue length does an incoming req see
system.mem_ctrls0.wrQLenPdf::46                     1                       # What write queue length does an incoming req see
system.mem_ctrls0.wrQLenPdf::47                  5761                       # What write queue length does an incoming req see
system.mem_ctrls0.wrQLenPdf::48                  6453                       # What write queue length does an incoming req see
system.mem_ctrls0.wrQLenPdf::49                 27895                       # What write queue length does an incoming req see
system.mem_ctrls0.wrQLenPdf::50                 33278                       # What write queue length does an incoming req see
system.mem_ctrls0.wrQLenPdf::51                 34577                       # What write queue length does an incoming req see
system.mem_ctrls0.wrQLenPdf::52                 35468                       # What write queue length does an incoming req see
system.mem_ctrls0.wrQLenPdf::53                 35482                       # What write queue length does an incoming req see
system.mem_ctrls0.wrQLenPdf::54                 35737                       # What write queue length does an incoming req see
system.mem_ctrls0.wrQLenPdf::55                 35382                       # What write queue length does an incoming req see
system.mem_ctrls0.wrQLenPdf::56                 35365                       # What write queue length does an incoming req see
system.mem_ctrls0.wrQLenPdf::57                 35599                       # What write queue length does an incoming req see
system.mem_ctrls0.wrQLenPdf::58                 36034                       # What write queue length does an incoming req see
system.mem_ctrls0.wrQLenPdf::59                 35904                       # What write queue length does an incoming req see
system.mem_ctrls0.wrQLenPdf::60                 36083                       # What write queue length does an incoming req see
system.mem_ctrls0.wrQLenPdf::61                 36053                       # What write queue length does an incoming req see
system.mem_ctrls0.wrQLenPdf::62                 35869                       # What write queue length does an incoming req see
system.mem_ctrls0.wrQLenPdf::63                 36291                       # What write queue length does an incoming req see
system.mem_ctrls0.wrQLenPdf::64                 35919                       # What write queue length does an incoming req see
system.mem_ctrls0.wrQLenPdf::65                   864                       # What write queue length does an incoming req see
system.mem_ctrls0.wrQLenPdf::66                   365                       # What write queue length does an incoming req see
system.mem_ctrls0.wrQLenPdf::67                   144                       # What write queue length does an incoming req see
system.mem_ctrls0.wrQLenPdf::68                    47                       # What write queue length does an incoming req see
system.mem_ctrls0.wrQLenPdf::69                    35                       # What write queue length does an incoming req see
system.mem_ctrls0.wrQLenPdf::70                    16                       # What write queue length does an incoming req see
system.mem_ctrls0.wrQLenPdf::71                    10                       # What write queue length does an incoming req see
system.mem_ctrls0.wrQLenPdf::72                     7                       # What write queue length does an incoming req see
system.mem_ctrls0.wrQLenPdf::73                     2                       # What write queue length does an incoming req see
system.mem_ctrls0.wrQLenPdf::74                     4                       # What write queue length does an incoming req see
system.mem_ctrls0.wrQLenPdf::75                     0                       # What write queue length does an incoming req see
system.mem_ctrls0.wrQLenPdf::76                     0                       # What write queue length does an incoming req see
system.mem_ctrls0.wrQLenPdf::77                     0                       # What write queue length does an incoming req see
system.mem_ctrls0.wrQLenPdf::78                     0                       # What write queue length does an incoming req see
system.mem_ctrls0.wrQLenPdf::79                     0                       # What write queue length does an incoming req see
system.mem_ctrls0.wrQLenPdf::80                     0                       # What write queue length does an incoming req see
system.mem_ctrls0.wrQLenPdf::81                     0                       # What write queue length does an incoming req see
system.mem_ctrls0.wrQLenPdf::82                     0                       # What write queue length does an incoming req see
system.mem_ctrls0.wrQLenPdf::83                     0                       # What write queue length does an incoming req see
system.mem_ctrls0.wrQLenPdf::84                     0                       # What write queue length does an incoming req see
system.mem_ctrls0.wrQLenPdf::85                     0                       # What write queue length does an incoming req see
system.mem_ctrls0.wrQLenPdf::86                     0                       # What write queue length does an incoming req see
system.mem_ctrls0.wrQLenPdf::87                     0                       # What write queue length does an incoming req see
system.mem_ctrls0.wrQLenPdf::88                     0                       # What write queue length does an incoming req see
system.mem_ctrls0.wrQLenPdf::89                     0                       # What write queue length does an incoming req see
system.mem_ctrls0.wrQLenPdf::90                     0                       # What write queue length does an incoming req see
system.mem_ctrls0.wrQLenPdf::91                     0                       # What write queue length does an incoming req see
system.mem_ctrls0.wrQLenPdf::92                     0                       # What write queue length does an incoming req see
system.mem_ctrls0.wrQLenPdf::93                     0                       # What write queue length does an incoming req see
system.mem_ctrls0.wrQLenPdf::94                     0                       # What write queue length does an incoming req see
system.mem_ctrls0.wrQLenPdf::95                     0                       # What write queue length does an incoming req see
system.mem_ctrls0.wrQLenPdf::96                     0                       # What write queue length does an incoming req see
system.mem_ctrls0.wrQLenPdf::97                     0                       # What write queue length does an incoming req see
system.mem_ctrls0.wrQLenPdf::98                     0                       # What write queue length does an incoming req see
system.mem_ctrls0.wrQLenPdf::99                     0                       # What write queue length does an incoming req see
system.mem_ctrls0.wrQLenPdf::100                    0                       # What write queue length does an incoming req see
system.mem_ctrls0.wrQLenPdf::101                    0                       # What write queue length does an incoming req see
system.mem_ctrls0.wrQLenPdf::102                    0                       # What write queue length does an incoming req see
system.mem_ctrls0.wrQLenPdf::103                    0                       # What write queue length does an incoming req see
system.mem_ctrls0.wrQLenPdf::104                    0                       # What write queue length does an incoming req see
system.mem_ctrls0.wrQLenPdf::105                    0                       # What write queue length does an incoming req see
system.mem_ctrls0.wrQLenPdf::106                    0                       # What write queue length does an incoming req see
system.mem_ctrls0.wrQLenPdf::107                    0                       # What write queue length does an incoming req see
system.mem_ctrls0.wrQLenPdf::108                    0                       # What write queue length does an incoming req see
system.mem_ctrls0.wrQLenPdf::109                    0                       # What write queue length does an incoming req see
system.mem_ctrls0.wrQLenPdf::110                    0                       # What write queue length does an incoming req see
system.mem_ctrls0.wrQLenPdf::111                    0                       # What write queue length does an incoming req see
system.mem_ctrls0.wrQLenPdf::112                    0                       # What write queue length does an incoming req see
system.mem_ctrls0.wrQLenPdf::113                    0                       # What write queue length does an incoming req see
system.mem_ctrls0.wrQLenPdf::114                    0                       # What write queue length does an incoming req see
system.mem_ctrls0.wrQLenPdf::115                    0                       # What write queue length does an incoming req see
system.mem_ctrls0.wrQLenPdf::116                    0                       # What write queue length does an incoming req see
system.mem_ctrls0.wrQLenPdf::117                    0                       # What write queue length does an incoming req see
system.mem_ctrls0.wrQLenPdf::118                    0                       # What write queue length does an incoming req see
system.mem_ctrls0.wrQLenPdf::119                    0                       # What write queue length does an incoming req see
system.mem_ctrls0.wrQLenPdf::120                    0                       # What write queue length does an incoming req see
system.mem_ctrls0.wrQLenPdf::121                    0                       # What write queue length does an incoming req see
system.mem_ctrls0.wrQLenPdf::122                    0                       # What write queue length does an incoming req see
system.mem_ctrls0.wrQLenPdf::123                    0                       # What write queue length does an incoming req see
system.mem_ctrls0.wrQLenPdf::124                    0                       # What write queue length does an incoming req see
system.mem_ctrls0.wrQLenPdf::125                    0                       # What write queue length does an incoming req see
system.mem_ctrls0.wrQLenPdf::126                    0                       # What write queue length does an incoming req see
system.mem_ctrls0.wrQLenPdf::127                    0                       # What write queue length does an incoming req see
system.mem_ctrls0.bytesPerActivate::samples       241315                       # Bytes accessed per row activation
system.mem_ctrls0.bytesPerActivate::mean   310.632128                       # Bytes accessed per row activation
system.mem_ctrls0.bytesPerActivate::gmean   252.031603                       # Bytes accessed per row activation
system.mem_ctrls0.bytesPerActivate::stdev   193.577111                       # Bytes accessed per row activation
system.mem_ctrls0.bytesPerActivate::0-127        30511     12.64%     12.64% # Bytes accessed per row activation
system.mem_ctrls0.bytesPerActivate::128-255        39240     16.26%     28.90% # Bytes accessed per row activation
system.mem_ctrls0.bytesPerActivate::256-383        91862     38.07%     66.97% # Bytes accessed per row activation
system.mem_ctrls0.bytesPerActivate::384-511        37068     15.36%     82.33% # Bytes accessed per row activation
system.mem_ctrls0.bytesPerActivate::512-639        28904     11.98%     94.31% # Bytes accessed per row activation
system.mem_ctrls0.bytesPerActivate::640-767         4484      1.86%     96.17% # Bytes accessed per row activation
system.mem_ctrls0.bytesPerActivate::768-895         2839      1.18%     97.34% # Bytes accessed per row activation
system.mem_ctrls0.bytesPerActivate::896-1023         1642      0.68%     98.03% # Bytes accessed per row activation
system.mem_ctrls0.bytesPerActivate::1024-1151         4765      1.97%    100.00% # Bytes accessed per row activation
system.mem_ctrls0.bytesPerActivate::total       241315                       # Bytes accessed per row activation
system.mem_ctrls0.rdPerTurnAround::samples        34819                       # Reads before turning the bus around for writes
system.mem_ctrls0.rdPerTurnAround::mean     17.134984                       # Reads before turning the bus around for writes
system.mem_ctrls0.rdPerTurnAround::gmean    16.540237                       # Reads before turning the bus around for writes
system.mem_ctrls0.rdPerTurnAround::stdev    68.923739                       # Reads before turning the bus around for writes
system.mem_ctrls0.rdPerTurnAround::0-255        34815     99.99%     99.99% # Reads before turning the bus around for writes
system.mem_ctrls0.rdPerTurnAround::256-511            3      0.01%    100.00% # Reads before turning the bus around for writes
system.mem_ctrls0.rdPerTurnAround::12800-13055            1      0.00%    100.00% # Reads before turning the bus around for writes
system.mem_ctrls0.rdPerTurnAround::total        34819                       # Reads before turning the bus around for writes
system.mem_ctrls0.wrPerTurnAround::samples        34819                       # Writes before turning the bus around for reads
system.mem_ctrls0.wrPerTurnAround::mean     16.503317                       # Writes before turning the bus around for reads
system.mem_ctrls0.wrPerTurnAround::gmean    16.466364                       # Writes before turning the bus around for reads
system.mem_ctrls0.wrPerTurnAround::stdev     1.165869                       # Writes before turning the bus around for reads
system.mem_ctrls0.wrPerTurnAround::16           28312     81.31%     81.31% # Writes before turning the bus around for reads
system.mem_ctrls0.wrPerTurnAround::17             468      1.34%     82.66% # Writes before turning the bus around for reads
system.mem_ctrls0.wrPerTurnAround::18            2850      8.19%     90.84% # Writes before turning the bus around for reads
system.mem_ctrls0.wrPerTurnAround::19            2211      6.35%     97.19% # Writes before turning the bus around for reads
system.mem_ctrls0.wrPerTurnAround::20             527      1.51%     98.70% # Writes before turning the bus around for reads
system.mem_ctrls0.wrPerTurnAround::21             243      0.70%     99.40% # Writes before turning the bus around for reads
system.mem_ctrls0.wrPerTurnAround::22             147      0.42%     99.82% # Writes before turning the bus around for reads
system.mem_ctrls0.wrPerTurnAround::23              21      0.06%     99.89% # Writes before turning the bus around for reads
system.mem_ctrls0.wrPerTurnAround::24              15      0.04%     99.93% # Writes before turning the bus around for reads
system.mem_ctrls0.wrPerTurnAround::25              12      0.03%     99.96% # Writes before turning the bus around for reads
system.mem_ctrls0.wrPerTurnAround::26               6      0.02%     99.98% # Writes before turning the bus around for reads
system.mem_ctrls0.wrPerTurnAround::27               3      0.01%     99.99% # Writes before turning the bus around for reads
system.mem_ctrls0.wrPerTurnAround::28               3      0.01%    100.00% # Writes before turning the bus around for reads
system.mem_ctrls0.wrPerTurnAround::31               1      0.00%    100.00% # Writes before turning the bus around for reads
system.mem_ctrls0.wrPerTurnAround::total        34819                       # Writes before turning the bus around for reads
system.mem_ctrls0.masterReadBytes::.cpu.inst       289216                       # Per-master bytes read from memory
system.mem_ctrls0.masterReadBytes::.cpu.data       798528                       # Per-master bytes read from memory
system.mem_ctrls0.masterReadBytes::.l2.prefetcher     37096896                       # Per-master bytes read from memory
system.mem_ctrls0.masterWriteBytes::.writebacks     36776256                       # Per-master bytes write to memory
system.mem_ctrls0.masterReadRate::.cpu.inst 2892160.000000000000                       # Per-master bytes read from memory rate (Bytes/sec)
system.mem_ctrls0.masterReadRate::.cpu.data 7985280.000000000000                       # Per-master bytes read from memory rate (Bytes/sec)
system.mem_ctrls0.masterReadRate::.l2.prefetcher 370968960.000000000000                       # Per-master bytes read from memory rate (Bytes/sec)
system.mem_ctrls0.masterWriteRate::.writebacks 367762560.000000000000                       # Per-master bytes write to memory rate (Bytes/sec)
system.mem_ctrls0.masterReadAccesses::.cpu.inst         4519                       # Per-master read serviced memory accesses
system.mem_ctrls0.masterReadAccesses::.cpu.data        12477                       # Per-master read serviced memory accesses
system.mem_ctrls0.masterReadAccesses::.l2.prefetcher       579639                       # Per-master read serviced memory accesses
system.mem_ctrls0.masterWriteAccesses::.writebacks       574691                       # Per-master write serviced memory accesses
system.mem_ctrls0.masterReadTotalLat::.cpu.inst    436299251                       # Per-master read total memory access latency
system.mem_ctrls0.masterReadTotalLat::.cpu.data    991463659                       # Per-master read total memory access latency
system.mem_ctrls0.masterReadTotalLat::.l2.prefetcher  27157044550                       # Per-master read total memory access latency
system.mem_ctrls0.masterWriteTotalLat::.writebacks 2893234769673                       # Per-master write total memory access latency
system.mem_ctrls0.masterReadAvgLat::.cpu.inst     96547.74                       # Per-master read average memory access latency
system.mem_ctrls0.masterReadAvgLat::.cpu.data     79463.31                       # Per-master read average memory access latency
system.mem_ctrls0.masterReadAvgLat::.l2.prefetcher     46851.65                       # Per-master read average memory access latency
system.mem_ctrls0.masterWriteAvgLat::.writebacks   5034418.10                       # Per-master write average memory access latency
system.mem_ctrls0.totQLat                 18148468040                       # Total ticks spent queuing
system.mem_ctrls0.totMemAccLat            28584807460                       # Total ticks spent from burst creation until serviced by the DRAM
system.mem_ctrls0.totBusLat                1987987820                       # Total ticks spent in databus transfers
system.mem_ctrls0.avgQLat                    30418.04                       # Average queueing delay per DRAM burst
system.mem_ctrls0.avgBusLat                   3332.00                       # Average bus latency per DRAM burst
system.mem_ctrls0.avgMemAccLat               47910.04                       # Average memory access latency per DRAM burst
system.mem_ctrls0.avgRdBW                      381.85                       # Average DRAM read bandwidth in MiByte/s
system.mem_ctrls0.avgWrBW                      367.76                       # Average achieved write bandwidth in MiByte/s
system.mem_ctrls0.avgRdBWSys                   381.85                       # Average system read bandwidth in MiByte/s
system.mem_ctrls0.avgWrBWSys                   367.80                       # Average system write bandwidth in MiByte/s
system.mem_ctrls0.peakBW                     19207.00                       # Theoretical peak bandwidth in MiByte/s
system.mem_ctrls0.busUtil                        3.90                       # Data bus utilization in percentage
system.mem_ctrls0.busUtilRead                    1.99                       # Data bus utilization in percentage for reads
system.mem_ctrls0.busUtilWrite                   1.91                       # Data bus utilization in percentage for writes
system.mem_ctrls0.avgRdQLen                      1.34                       # Average read queue length when enqueuing
system.mem_ctrls0.avgWrQLen                     29.31                       # Average write queue length when enqueuing
system.mem_ctrls0.readRowHits                  468747                       # Number of row buffer hits during reads
system.mem_ctrls0.writeRowHits                 461200                       # Number of row buffer hits during writes
system.mem_ctrls0.readRowHitRate                78.57                       # Row buffer hit rate for reads
system.mem_ctrls0.writeRowHitRate               80.25                       # Row buffer hit rate for writes
system.mem_ctrls0.avgGap                     85373.27                       # Average gap between requests
system.mem_ctrls0.pageHitRate                   79.39                       # Row buffer hit rate, read and write combined
system.mem_ctrls0_0.actEnergy            377241123.168005                       # Energy for activate commands per rank (pJ)
system.mem_ctrls0_0.preEnergy            501537236.827199                       # Energy for precharge commands per rank (pJ)
system.mem_ctrls0_0.readEnergy           1257499438.943997                       # Energy for read commands per rank (pJ)
system.mem_ctrls0_0.writeEnergy          1080172957.919999                       # Energy for write commands per rank (pJ)
system.mem_ctrls0_0.refreshEnergy        12171927832.577570                       # Energy for refresh commands per rank (pJ)
system.mem_ctrls0_0.actBackEnergy        13229875975.982370                       # Energy for active background per rank (pJ)
system.mem_ctrls0_0.preBackEnergy        458698399.219200                       # Energy for precharge background per rank (pJ)
system.mem_ctrls0_0.actPowerDownEnergy   27219371190.681591                       # Energy for active power-down per rank (pJ)
system.mem_ctrls0_0.prePowerDownEnergy   3874949799.840568                       # Energy for precharge power-down per rank (pJ)
system.mem_ctrls0_0.selfRefreshEnergy    18898136960.304012                       # Energy for self refresh per rank (pJ)
system.mem_ctrls0_0.totalEnergy          79071660655.209915                       # Total energy per rank (pJ)
system.mem_ctrls0_0.averagePower           790.716607                       # Core power per rank (mW)
system.mem_ctrls0_0.totalIdleTime         83723070821                       # Total Idle time Per DRAM Rank
system.mem_ctrls0_0.memoryStateTime::IDLE    286750459                       # Time in different power states
system.mem_ctrls0_0.memoryStateTime::REF   3074775533                       # Time in different power states
system.mem_ctrls0_0.memoryStateTime::SREF  31347904067                       # Time in different power states
system.mem_ctrls0_0.memoryStateTime::PRE_PDN   8072783206                       # Time in different power states
system.mem_ctrls0_0.memoryStateTime::ACT  12915403187                       # Time in different power states
system.mem_ctrls0_0.memoryStateTime::ACT_PDN  44302383548                       # Time in different power states
system.mem_ctrls0_1.actEnergy            375366753.216005                       # Energy for activate commands per rank (pJ)
system.mem_ctrls0_1.preEnergy            499036993.324801                       # Energy for precharge commands per rank (pJ)
system.mem_ctrls0_1.readEnergy           1252136385.023998                       # Energy for read commands per rank (pJ)
system.mem_ctrls0_1.writeEnergy          1079567840.063992                       # Energy for write commands per rank (pJ)
system.mem_ctrls0_1.refreshEnergy        10546879875.872940                       # Energy for refresh commands per rank (pJ)
system.mem_ctrls0_1.actBackEnergy        12961837438.300791                       # Energy for active background per rank (pJ)
system.mem_ctrls0_1.preBackEnergy        365402196.633599                       # Energy for precharge background per rank (pJ)
system.mem_ctrls0_1.actPowerDownEnergy   24201271393.689564                       # Energy for active power-down per rank (pJ)
system.mem_ctrls0_1.prePowerDownEnergy   2018072048.159677                       # Energy for precharge power-down per rank (pJ)
system.mem_ctrls0_1.selfRefreshEnergy    23845773001.948799                       # Energy for self refresh per rank (pJ)
system.mem_ctrls0_1.totalEnergy          77146296381.100571                       # Total energy per rank (pJ)
system.mem_ctrls0_1.averagePower           771.462964                       # Core power per rank (mW)
system.mem_ctrls0_1.totalIdleTime         84182847511                       # Total Idle time Per DRAM Rank
system.mem_ctrls0_1.memoryStateTime::IDLE    171479809                       # Time in different power states
system.mem_ctrls0_1.memoryStateTime::REF   2664550000                       # Time in different power states
system.mem_ctrls0_1.memoryStateTime::SREF  40588309487                       # Time in different power states
system.mem_ctrls0_1.memoryStateTime::PRE_PDN   4204331147                       # Time in different power states
system.mem_ctrls0_1.memoryStateTime::ACT  12981050179                       # Time in different power states
system.mem_ctrls0_1.memoryStateTime::ACT_PDN  39390279378                       # Time in different power states
system.mem_ctrls1.pwrStateResidencyTicks::UNDEFINED 100000000000                       # Cumulative time (in ticks) in various power states
system.mem_ctrls1.bytes_read::.cpu.inst        305536                       # Number of bytes read from this memory
system.mem_ctrls1.bytes_read::.cpu.data        796928                       # Number of bytes read from this memory
system.mem_ctrls1.bytes_read::.l2.prefetcher     37098432                       # Number of bytes read from this memory
system.mem_ctrls1.bytes_read::total          38200896                       # Number of bytes read from this memory
system.mem_ctrls1.bytes_inst_read::.cpu.inst       305536                       # Number of instructions bytes read from this memory
system.mem_ctrls1.bytes_inst_read::total       305536                       # Number of instructions bytes read from this memory
system.mem_ctrls1.bytes_written::.writebacks     36780352                       # Number of bytes written to this memory
system.mem_ctrls1.bytes_written::total       36780352                       # Number of bytes written to this memory
system.mem_ctrls1.num_reads::.cpu.inst           4774                       # Number of read requests responded to by this memory
system.mem_ctrls1.num_reads::.cpu.data          12452                       # Number of read requests responded to by this memory
system.mem_ctrls1.num_reads::.l2.prefetcher       579663                       # Number of read requests responded to by this memory
system.mem_ctrls1.num_reads::total             596889                       # Number of read requests responded to by this memory
system.mem_ctrls1.num_writes::.writebacks       574693                       # Number of write requests responded to by this memory
system.mem_ctrls1.num_writes::total            574693                       # Number of write requests responded to by this memory
system.mem_ctrls1.bw_read::.cpu.inst          3055360                       # Total read bandwidth from this memory (bytes/s)
system.mem_ctrls1.bw_read::.cpu.data          7969280                       # Total read bandwidth from this memory (bytes/s)
system.mem_ctrls1.bw_read::.l2.prefetcher    370984320                       # Total read bandwidth from this memory (bytes/s)
system.mem_ctrls1.bw_read::total            382008960                       # Total read bandwidth from this memory (bytes/s)
system.mem_ctrls1.bw_inst_read::.cpu.inst      3055360                       # Instruction read bandwidth from this memory (bytes/s)
system.mem_ctrls1.bw_inst_read::total         3055360                       # Instruction read bandwidth from this memory (bytes/s)
system.mem_ctrls1.bw_write::.writebacks     367803520                       # Write bandwidth from this memory (bytes/s)
system.mem_ctrls1.bw_write::total           367803520                       # Write bandwidth from this memory (bytes/s)
system.mem_ctrls1.bw_total::.writebacks     367803520                       # Total bandwidth to/from this memory (bytes/s)
system.mem_ctrls1.bw_total::.cpu.inst         3055360                       # Total bandwidth to/from this memory (bytes/s)
system.mem_ctrls1.bw_total::.cpu.data         7969280                       # Total bandwidth to/from this memory (bytes/s)
system.mem_ctrls1.bw_total::.l2.prefetcher    370984320                       # Total bandwidth to/from this memory (bytes/s)
system.mem_ctrls1.bw_total::total           749812480                       # Total bandwidth to/from this memory (bytes/s)
system.mem_ctrls1.avgPriority_.writebacks::samples    574693.00                       # Average QoS priority value for accepted requests
system.mem_ctrls1.avgPriority_.cpu.inst::samples      4774.00                       # Average QoS priority value for accepted requests
system.mem_ctrls1.avgPriority_.cpu.data::samples     12452.00                       # Average QoS priority value for accepted requests
system.mem_ctrls1.avgPriority_.l2.prefetcher::samples    579663.00                       # Average QoS priority value for accepted requests
system.mem_ctrls1.priorityMinLatency     0.000000017492                       # per QoS priority minimum request to response latency (s)
system.mem_ctrls1.priorityMaxLatency     0.004918039652                       # per QoS priority maximum request to response latency (s)
system.mem_ctrls1.numReadWriteTurnArounds        34867                       # Number of turnarounds from READ to WRITE
system.mem_ctrls1.numWriteReadTurnArounds        34867                       # Number of turnarounds from WRITE to READ
system.mem_ctrls1.numStayReadState            1678658                       # Number of times bus staying in READ state
system.mem_ctrls1.numStayWriteState            540433                       # Number of times bus staying in WRITE state
system.mem_ctrls1.readReqs                     596889                       # Number of read requests accepted
system.mem_ctrls1.writeReqs                    574693                       # Number of write requests accepted
system.mem_ctrls1.readBursts                   596889                       # Number of DRAM read bursts, including those serviced by the write queue
system.mem_ctrls1.writeBursts                  574693                       # Number of DRAM write bursts, including those merged in the write queue
system.mem_ctrls1.bytesReadDRAM              38200896                       # Total number of bytes read from DRAM
system.mem_ctrls1.bytesReadWrQ                      0                       # Total number of bytes read from write queue
system.mem_ctrls1.bytesWritten               36776704                       # Total number of bytes written to DRAM
system.mem_ctrls1.bytesReadSys               38200896                       # Total read bytes from the system interface side
system.mem_ctrls1.bytesWrittenSys            36780352                       # Total written bytes from the system interface side
system.mem_ctrls1.servicedByWrQ                     0                       # Number of DRAM read bursts serviced by the write queue
system.mem_ctrls1.mergedWrBursts                    0                       # Number of DRAM write bursts merged with an existing one
system.mem_ctrls1.neitherReadNorWriteReqs            0                       # Number of requests that are neither read nor write
system.mem_ctrls1.perBankRdBursts::0            18561                       # Per bank write bursts
system.mem_ctrls1.perBankRdBursts::1            18747                       # Per bank write bursts
system.mem_ctrls1.perBankRdBursts::2            19172                       # Per bank write bursts
system.mem_ctrls1.perBankRdBursts::3            18910                       # Per bank write bursts
system.mem_ctrls1.perBankRdBursts::4            18730                       # Per bank write bursts
system.mem_ctrls1.perBankRdBursts::5            18722                       # Per bank write bursts
system.mem_ctrls1.perBankRdBursts::6            18700                       # Per bank write bursts
system.mem_ctrls1.perBankRdBursts::7            18752                       # Per bank write bursts
system.mem_ctrls1.perBankRdBursts::8            18683                       # Per bank write bursts
system.mem_ctrls1.perBankRdBursts::9            18602                       # Per bank write bursts
system.mem_ctrls1.perBankRdBursts::10           18590                       # Per bank write bursts
system.mem_ctrls1.perBankRdBursts::11           18577                       # Per bank write bursts
system.mem_ctrls1.perBankRdBursts::12           18677                       # Per bank write bursts
system.mem_ctrls1.perBankRdBursts::13           18631                       # Per bank write bursts
system.mem_ctrls1.perBankRdBursts::14           18545                       # Per bank write bursts
system.mem_ctrls1.perBankRdBursts::15           18565                       # Per bank write bursts
system.mem_ctrls1.perBankRdBursts::16           18479                       # Per bank write bursts
system.mem_ctrls1.perBankRdBursts::17           18507                       # Per bank write bursts
system.mem_ctrls1.perBankRdBursts::18           18597                       # Per bank write bursts
system.mem_ctrls1.perBankRdBursts::19           18644                       # Per bank write bursts
system.mem_ctrls1.perBankRdBursts::20           18640                       # Per bank write bursts
system.mem_ctrls1.perBankRdBursts::21           18610                       # Per bank write bursts
system.mem_ctrls1.perBankRdBursts::22           18627                       # Per bank write bursts
system.mem_ctrls1.perBankRdBursts::23           18610                       # Per bank write bursts
system.mem_ctrls1.perBankRdBursts::24           18640                       # Per bank write bursts
system.mem_ctrls1.perBankRdBursts::25           18657                       # Per bank write bursts
system.mem_ctrls1.perBankRdBursts::26           18619                       # Per bank write bursts
system.mem_ctrls1.perBankRdBursts::27           18606                       # Per bank write bursts
system.mem_ctrls1.perBankRdBursts::28           18700                       # Per bank write bursts
system.mem_ctrls1.perBankRdBursts::29           18655                       # Per bank write bursts
system.mem_ctrls1.perBankRdBursts::30           18551                       # Per bank write bursts
system.mem_ctrls1.perBankRdBursts::31           18583                       # Per bank write bursts
system.mem_ctrls1.perBankWrBursts::0            17924                       # Per bank write bursts
system.mem_ctrls1.perBankWrBursts::1            17923                       # Per bank write bursts
system.mem_ctrls1.perBankWrBursts::2            18039                       # Per bank write bursts
system.mem_ctrls1.perBankWrBursts::3            18051                       # Per bank write bursts
system.mem_ctrls1.perBankWrBursts::4            18051                       # Per bank write bursts
system.mem_ctrls1.perBankWrBursts::5            17976                       # Per bank write bursts
system.mem_ctrls1.perBankWrBursts::6            17986                       # Per bank write bursts
system.mem_ctrls1.perBankWrBursts::7            18052                       # Per bank write bursts
system.mem_ctrls1.perBankWrBursts::8            17983                       # Per bank write bursts
system.mem_ctrls1.perBankWrBursts::9            17919                       # Per bank write bursts
system.mem_ctrls1.perBankWrBursts::10           17898                       # Per bank write bursts
system.mem_ctrls1.perBankWrBursts::11           17923                       # Per bank write bursts
system.mem_ctrls1.perBankWrBursts::12           17922                       # Per bank write bursts
system.mem_ctrls1.perBankWrBursts::13           17922                       # Per bank write bursts
system.mem_ctrls1.perBankWrBursts::14           17902                       # Per bank write bursts
system.mem_ctrls1.perBankWrBursts::15           17922                       # Per bank write bursts
system.mem_ctrls1.perBankWrBursts::16           17922                       # Per bank write bursts
system.mem_ctrls1.perBankWrBursts::17           17923                       # Per bank write bursts
system.mem_ctrls1.perBankWrBursts::18           17923                       # Per bank write bursts
system.mem_ctrls1.perBankWrBursts::19           17891                       # Per bank write bursts
system.mem_ctrls1.perBankWrBursts::20           17923                       # Per bank write bursts
system.mem_ctrls1.perBankWrBursts::21           17955                       # Per bank write bursts
system.mem_ctrls1.perBankWrBursts::22           18020                       # Per bank write bursts
system.mem_ctrls1.perBankWrBursts::23           17938                       # Per bank write bursts
system.mem_ctrls1.perBankWrBursts::24           18018                       # Per bank write bursts
system.mem_ctrls1.perBankWrBursts::25           17959                       # Per bank write bursts
system.mem_ctrls1.perBankWrBursts::26           17952                       # Per bank write bursts
system.mem_ctrls1.perBankWrBursts::27           17979                       # Per bank write bursts
system.mem_ctrls1.perBankWrBursts::28           18018                       # Per bank write bursts
system.mem_ctrls1.perBankWrBursts::29           18006                       # Per bank write bursts
system.mem_ctrls1.perBankWrBursts::30           17921                       # Per bank write bursts
system.mem_ctrls1.perBankWrBursts::31           17895                       # Per bank write bursts
system.mem_ctrls1.numRdRetry                        0                       # Number of times read queue was full causing retry
system.mem_ctrls1.numWrRetry                        0                       # Number of times write queue was full causing retry
system.mem_ctrls1.totGap                  99999851500                       # Total gap between requests
system.mem_ctrls1.readPktSize::0                    0                       # Read request sizes (log2)
system.mem_ctrls1.readPktSize::1                    0                       # Read request sizes (log2)
system.mem_ctrls1.readPktSize::2                    0                       # Read request sizes (log2)
system.mem_ctrls1.readPktSize::3                    0                       # Read request sizes (log2)
system.mem_ctrls1.readPktSize::4                    0                       # Read request sizes (log2)
system.mem_ctrls1.readPktSize::5                    0                       # Read request sizes (log2)
system.mem_ctrls1.readPktSize::6               596889                       # Read request sizes (log2)
system.mem_ctrls1.writePktSize::0                   0                       # Write request sizes (log2)
system.mem_ctrls1.writePktSize::1                   0                       # Write request sizes (log2)
system.mem_ctrls1.writePktSize::2                   0                       # Write request sizes (log2)
system.mem_ctrls1.writePktSize::3                   0                       # Write request sizes (log2)
system.mem_ctrls1.writePktSize::4                   0                       # Write request sizes (log2)
system.mem_ctrls1.writePktSize::5                   0                       # Write request sizes (log2)
system.mem_ctrls1.writePktSize::6              574693                       # Write request sizes (log2)
system.mem_ctrls1.rdQLenPdf::0                 455499                       # What read queue length does an incoming req see
system.mem_ctrls1.rdQLenPdf::1                  69951                       # What read queue length does an incoming req see
system.mem_ctrls1.rdQLenPdf::2                  35476                       # What read queue length does an incoming req see
system.mem_ctrls1.rdQLenPdf::3                  23228                       # What read queue length does an incoming req see
system.mem_ctrls1.rdQLenPdf::4                  10325                       # What read queue length does an incoming req see
system.mem_ctrls1.rdQLenPdf::5                    926                       # What read queue length does an incoming req see
system.mem_ctrls1.rdQLenPdf::6                    670                       # What read queue length does an incoming req see
system.mem_ctrls1.rdQLenPdf::7                    563                       # What read queue length does an incoming req see
system.mem_ctrls1.rdQLenPdf::8                    251                       # What read queue length does an incoming req see
system.mem_ctrls1.rdQLenPdf::9                      0                       # What read queue length does an incoming req see
system.mem_ctrls1.rdQLenPdf::10                     0                       # What read queue length does an incoming req see
system.mem_ctrls1.rdQLenPdf::11                     0                       # What read queue length does an incoming req see
system.mem_ctrls1.rdQLenPdf::12                     0                       # What read queue length does an incoming req see
system.mem_ctrls1.rdQLenPdf::13                     0                       # What read queue length does an incoming req see
system.mem_ctrls1.rdQLenPdf::14                     0                       # What read queue length does an incoming req see
system.mem_ctrls1.rdQLenPdf::15                     0                       # What read queue length does an incoming req see
system.mem_ctrls1.rdQLenPdf::16                     0                       # What read queue length does an incoming req see
system.mem_ctrls1.rdQLenPdf::17                     0                       # What read queue length does an incoming req see
system.mem_ctrls1.rdQLenPdf::18                     0                       # What read queue length does an incoming req see
system.mem_ctrls1.rdQLenPdf::19                     0                       # What read queue length does an incoming req see
system.mem_ctrls1.rdQLenPdf::20                     0                       # What read queue length does an incoming req see
system.mem_ctrls1.rdQLenPdf::21                     0                       # What read queue length does an incoming req see
system.mem_ctrls1.rdQLenPdf::22                     0                       # What read queue length does an incoming req see
system.mem_ctrls1.rdQLenPdf::23                     0                       # What read queue length does an incoming req see
system.mem_ctrls1.rdQLenPdf::24                     0                       # What read queue length does an incoming req see
system.mem_ctrls1.rdQLenPdf::25                     0                       # What read queue length does an incoming req see
system.mem_ctrls1.rdQLenPdf::26                     0                       # What read queue length does an incoming req see
system.mem_ctrls1.rdQLenPdf::27                     0                       # What read queue length does an incoming req see
system.mem_ctrls1.rdQLenPdf::28                     0                       # What read queue length does an incoming req see
system.mem_ctrls1.rdQLenPdf::29                     0                       # What read queue length does an incoming req see
system.mem_ctrls1.rdQLenPdf::30                     0                       # What read queue length does an incoming req see
system.mem_ctrls1.rdQLenPdf::31                     0                       # What read queue length does an incoming req see
system.mem_ctrls1.rdQLenPdf::32                     0                       # What read queue length does an incoming req see
system.mem_ctrls1.rdQLenPdf::33                     0                       # What read queue length does an incoming req see
system.mem_ctrls1.rdQLenPdf::34                     0                       # What read queue length does an incoming req see
system.mem_ctrls1.rdQLenPdf::35                     0                       # What read queue length does an incoming req see
system.mem_ctrls1.rdQLenPdf::36                     0                       # What read queue length does an incoming req see
system.mem_ctrls1.rdQLenPdf::37                     0                       # What read queue length does an incoming req see
system.mem_ctrls1.rdQLenPdf::38                     0                       # What read queue length does an incoming req see
system.mem_ctrls1.rdQLenPdf::39                     0                       # What read queue length does an incoming req see
system.mem_ctrls1.rdQLenPdf::40                     0                       # What read queue length does an incoming req see
system.mem_ctrls1.rdQLenPdf::41                     0                       # What read queue length does an incoming req see
system.mem_ctrls1.rdQLenPdf::42                     0                       # What read queue length does an incoming req see
system.mem_ctrls1.rdQLenPdf::43                     0                       # What read queue length does an incoming req see
system.mem_ctrls1.rdQLenPdf::44                     0                       # What read queue length does an incoming req see
system.mem_ctrls1.rdQLenPdf::45                     0                       # What read queue length does an incoming req see
system.mem_ctrls1.rdQLenPdf::46                     0                       # What read queue length does an incoming req see
system.mem_ctrls1.rdQLenPdf::47                     0                       # What read queue length does an incoming req see
system.mem_ctrls1.rdQLenPdf::48                     0                       # What read queue length does an incoming req see
system.mem_ctrls1.rdQLenPdf::49                     0                       # What read queue length does an incoming req see
system.mem_ctrls1.rdQLenPdf::50                     0                       # What read queue length does an incoming req see
system.mem_ctrls1.rdQLenPdf::51                     0                       # What read queue length does an incoming req see
system.mem_ctrls1.rdQLenPdf::52                     0                       # What read queue length does an incoming req see
system.mem_ctrls1.rdQLenPdf::53                     0                       # What read queue length does an incoming req see
system.mem_ctrls1.rdQLenPdf::54                     0                       # What read queue length does an incoming req see
system.mem_ctrls1.rdQLenPdf::55                     0                       # What read queue length does an incoming req see
system.mem_ctrls1.rdQLenPdf::56                     0                       # What read queue length does an incoming req see
system.mem_ctrls1.rdQLenPdf::57                     0                       # What read queue length does an incoming req see
system.mem_ctrls1.rdQLenPdf::58                     0                       # What read queue length does an incoming req see
system.mem_ctrls1.rdQLenPdf::59                     0                       # What read queue length does an incoming req see
system.mem_ctrls1.rdQLenPdf::60                     0                       # What read queue length does an incoming req see
system.mem_ctrls1.rdQLenPdf::61                     0                       # What read queue length does an incoming req see
system.mem_ctrls1.rdQLenPdf::62                     0                       # What read queue length does an incoming req see
system.mem_ctrls1.rdQLenPdf::63                     0                       # What read queue length does an incoming req see
system.mem_ctrls1.wrQLenPdf::0                      1                       # What write queue length does an incoming req see
system.mem_ctrls1.wrQLenPdf::1                      1                       # What write queue length does an incoming req see
system.mem_ctrls1.wrQLenPdf::2                      1                       # What write queue length does an incoming req see
system.mem_ctrls1.wrQLenPdf::3                      1                       # What write queue length does an incoming req see
system.mem_ctrls1.wrQLenPdf::4                      1                       # What write queue length does an incoming req see
system.mem_ctrls1.wrQLenPdf::5                      1                       # What write queue length does an incoming req see
system.mem_ctrls1.wrQLenPdf::6                      1                       # What write queue length does an incoming req see
system.mem_ctrls1.wrQLenPdf::7                      1                       # What write queue length does an incoming req see
system.mem_ctrls1.wrQLenPdf::8                      1                       # What write queue length does an incoming req see
system.mem_ctrls1.wrQLenPdf::9                      1                       # What write queue length does an incoming req see
system.mem_ctrls1.wrQLenPdf::10                     1                       # What write queue length does an incoming req see
system.mem_ctrls1.wrQLenPdf::11                     1                       # What write queue length does an incoming req see
system.mem_ctrls1.wrQLenPdf::12                     1                       # What write queue length does an incoming req see
system.mem_ctrls1.wrQLenPdf::13                     1                       # What write queue length does an incoming req see
system.mem_ctrls1.wrQLenPdf::14                     1                       # What write queue length does an incoming req see
system.mem_ctrls1.wrQLenPdf::15                     1                       # What write queue length does an incoming req see
system.mem_ctrls1.wrQLenPdf::16                     1                       # What write queue length does an incoming req see
[...]
system.l2.avg_blocked_cycles::no_targets          nan                       # average number of cycles each access was blocked
system.l2.unused_prefetches                       121                       # number of HardPF blocks evicted w/o reference
system.l2.writebacks::.writebacks             1149385                       # number of writebacks
system.l2.writebacks::total                   1149385                       # number of writebacks
system.l2.ReadExReq_mshr_hits::.cpu.data          131                       # number of ReadExReq MSHR hits
system.l2.ReadExReq_mshr_hits::total              131                       # number of ReadExReq MSHR hits
system.l2.ReadSharedReq_mshr_hits::.cpu.data            2                       # number of ReadSharedReq MSHR hits
system.l2.ReadSharedReq_mshr_hits::total            2                       # number of ReadSharedReq MSHR hits
system.l2.demand_mshr_hits::.cpu.data             133                       # number of demand (read+write) MSHR hits
system.l2.demand_mshr_hits::total                 133                       # number of demand (read+write) MSHR hits
system.l2.overall_mshr_hits::.cpu.data            133                       # number of overall MSHR hits
system.l2.overall_mshr_hits::total                133                       # number of overall MSHR hits
system.l2.HardPFReq_mshr_misses::.l2.prefetcher      1163475                       # number of HardPFReq MSHR misses
system.l2.HardPFReq_mshr_misses::total        1163475                       # number of HardPFReq MSHR misses
system.l2.UpgradeReq_mshr_misses::.cpu.data          717                       # number of UpgradeReq MSHR misses
system.l2.UpgradeReq_mshr_misses::total           717                       # number of UpgradeReq MSHR misses
system.l2.ReadExReq_mshr_misses::.cpu.data        22811                       # number of ReadExReq MSHR misses
system.l2.ReadExReq_mshr_misses::total          22811                       # number of ReadExReq MSHR misses
system.l2.ReadCleanReq_mshr_misses::.cpu.inst         9293                       # number of ReadCleanReq MSHR misses
system.l2.ReadCleanReq_mshr_misses::total         9293                       # number of ReadCleanReq MSHR misses
system.l2.ReadSharedReq_mshr_misses::.cpu.data         2125                       # number of ReadSharedReq MSHR misses
system.l2.ReadSharedReq_mshr_misses::total         2125                       # number of ReadSharedReq MSHR misses
system.l2.demand_mshr_misses::.cpu.inst          9293                       # number of demand (read+write) MSHR misses
system.l2.demand_mshr_misses::.cpu.data         24936                       # number of demand (read+write) MSHR misses
system.l2.demand_mshr_misses::total             34229                       # number of demand (read+write) MSHR misses
system.l2.overall_mshr_misses::.cpu.inst         9293                       # number of overall MSHR misses
system.l2.overall_mshr_misses::.cpu.data        24936                       # number of overall MSHR misses
system.l2.overall_mshr_misses::.l2.prefetcher      1163475                       # number of overall MSHR misses
system.l2.overall_mshr_misses::total          1197704                       # number of overall MSHR misses
system.l2.HardPFReq_mshr_miss_latency::.l2.prefetcher  91481038160                       # number of HardPFReq MSHR miss cycles
system.l2.HardPFReq_mshr_miss_latency::total  91481038160                       # number of HardPFReq MSHR miss cycles
system.l2.UpgradeReq_mshr_miss_latency::.cpu.data     21834000                       # number of UpgradeReq MSHR miss cycles
system.l2.UpgradeReq_mshr_miss_latency::total     21834000                       # number of UpgradeReq MSHR miss cycles
system.l2.ReadExReq_mshr_miss_latency::.cpu.data   3049626000                       # number of ReadExReq MSHR miss cycles
system.l2.ReadExReq_mshr_miss_latency::total   3049626000                       # number of ReadExReq MSHR miss cycles
system.l2.ReadCleanReq_mshr_miss_latency::.cpu.inst   1487990500                       # number of ReadCleanReq MSHR miss cycles
system.l2.ReadCleanReq_mshr_miss_latency::total   1487990500                       # number of ReadCleanReq MSHR miss cycles
system.l2.ReadSharedReq_mshr_miss_latency::.cpu.data    435346500                       # number of ReadSharedReq MSHR miss cycles
system.l2.ReadSharedReq_mshr_miss_latency::total    435346500                       # number of ReadSharedReq MSHR miss cycles
system.l2.demand_mshr_miss_latency::.cpu.inst   1487990500                       # number of demand (read+write) MSHR miss cycles
system.l2.demand_mshr_miss_latency::.cpu.data   3484972500                       # number of demand (read+write) MSHR miss cycles
system.l2.demand_mshr_miss_latency::total   4972963000                       # number of demand (read+write) MSHR miss cycles
system.l2.overall_mshr_miss_latency::.cpu.inst   1487990500                       # number of overall MSHR miss cycles
system.l2.overall_mshr_miss_latency::.cpu.data   3484972500                       # number of overall MSHR miss cycles
system.l2.overall_mshr_miss_latency::.l2.prefetcher  91481038160                       # number of overall MSHR miss cycles
system.l2.overall_mshr_miss_latency::total  96454001160                       # number of overall MSHR miss cycles
system.l2.HardPFReq_mshr_miss_rate::.l2.prefetcher          inf                       # mshr miss rate for HardPFReq accesses
system.l2.HardPFReq_mshr_miss_rate::total          inf                       # mshr miss rate for HardPFReq accesses
system.l2.UpgradeReq_mshr_miss_rate::.cpu.data     0.997218                       # mshr miss rate for UpgradeReq accesses
system.l2.UpgradeReq_mshr_miss_rate::total     0.997218                       # mshr miss rate for UpgradeReq accesses
system.l2.ReadExReq_mshr_miss_rate::.cpu.data     0.019173                       # mshr miss rate for ReadExReq accesses
system.l2.ReadExReq_mshr_miss_rate::total     0.019173                       # mshr miss rate for ReadExReq accesses
system.l2.ReadCleanReq_mshr_miss_rate::.cpu.inst     0.027172                       # mshr miss rate for ReadCleanReq accesses
system.l2.ReadCleanReq_mshr_miss_rate::total     0.027172                       # mshr miss rate for ReadCleanReq accesses
system.l2.ReadSharedReq_mshr_miss_rate::.cpu.data     0.016090                       # mshr miss rate for ReadSharedReq accesses
system.l2.ReadSharedReq_mshr_miss_rate::total     0.016090                       # mshr miss rate for ReadSharedReq accesses
system.l2.demand_mshr_miss_rate::.cpu.inst     0.027172                       # mshr miss rate for demand accesses
system.l2.demand_mshr_miss_rate::.cpu.data     0.018865                       # mshr miss rate for demand accesses
system.l2.demand_mshr_miss_rate::total       0.020573                       # mshr miss rate for demand accesses
system.l2.overall_mshr_miss_rate::.cpu.inst     0.027172                       # mshr miss rate for overall accesses
system.l2.overall_mshr_miss_rate::.cpu.data     0.018865                       # mshr miss rate for overall accesses
system.l2.overall_mshr_miss_rate::.l2.prefetcher          inf                       # mshr miss rate for overall accesses
system.l2.overall_mshr_miss_rate::total      0.719851                       # mshr miss rate for overall accesses
system.l2.HardPFReq_avg_mshr_miss_latency::.l2.prefetcher 78627.420581                       # average HardPFReq mshr miss latency
system.l2.HardPFReq_avg_mshr_miss_latency::total 78627.420581                       # average HardPFReq mshr miss latency
system.l2.UpgradeReq_avg_mshr_miss_latency::.cpu.data 30451.882845                       # average UpgradeReq mshr miss latency
system.l2.UpgradeReq_avg_mshr_miss_latency::total 30451.882845                       # average UpgradeReq mshr miss latency
system.l2.ReadExReq_avg_mshr_miss_latency::.cpu.data 133691.026259                       # average ReadExReq mshr miss latency
system.l2.ReadExReq_avg_mshr_miss_latency::total 133691.026259                       # average ReadExReq mshr miss latency
system.l2.ReadCleanReq_avg_mshr_miss_latency::.cpu.inst 160119.498547                       # average ReadCleanReq mshr miss latency
system.l2.ReadCleanReq_avg_mshr_miss_latency::total 160119.498547                       # average ReadCleanReq mshr miss latency
system.l2.ReadSharedReq_avg_mshr_miss_latency::.cpu.data 204868.941176                       # average ReadSharedReq mshr miss latency
system.l2.ReadSharedReq_avg_mshr_miss_latency::total 204868.941176                       # average ReadSharedReq mshr miss latency
system.l2.demand_avg_mshr_miss_latency::.cpu.inst 160119.498547                       # average overall mshr miss latency
system.l2.demand_avg_mshr_miss_latency::.cpu.data 139756.677093                       # average overall mshr miss latency
system.l2.demand_avg_mshr_miss_latency::total 145285.079903                       # average overall mshr miss latency
system.l2.overall_avg_mshr_miss_latency::.cpu.inst 160119.498547                       # average overall mshr miss latency
system.l2.overall_avg_mshr_miss_latency::.cpu.data 139756.677093                       # average overall mshr miss latency
system.l2.overall_avg_mshr_miss_latency::.l2.prefetcher 78627.420581                       # average overall mshr miss latency
system.l2.overall_avg_mshr_miss_latency::total 80532.419663                       # average overall mshr miss latency
system.l2.replacements                        1159603                       # number of replacements
system.membus.snoop_filter.tot_requests       2353850                       # Total number of requests made to the snoop filter.
system.membus.snoop_filter.hit_single_requests      1160944                       # Number of requests hitting in the snoop filter with a single holder of the requested data.
system.membus.snoop_filter.hit_multi_requests            0                       # Number of requests hitting in the snoop filter with multiple (>1) holders of the requested data.
system.membus.snoop_filter.tot_snoops               0                       # Total number of snoops made to the snoop filter.
system.membus.snoop_filter.hit_single_snoops            0                       # Number of snoops hitting in the snoop filter with a single holder of the requested data.
system.membus.snoop_filter.hit_multi_snoops            0                       # Number of snoops hitting in the snoop filter with multiple (>1) holders of the requested data.
system.membus.pwrStateResidencyTicks::UNDEFINED 100000000000                       # Cumulative time (in ticks) in various power states
system.membus.trans_dist::ReadResp            1170720                       # Transaction distribution
system.membus.trans_dist::WritebackDirty      1149384                       # Transaction distribution
system.membus.trans_dist::CleanEvict            10218                       # Transaction distribution
system.membus.trans_dist::UpgradeReq              724                       # Transaction distribution
system.membus.trans_dist::ReadExReq             22804                       # Transaction distribution
system.membus.trans_dist::ReadExResp            22804                       # Transaction distribution
system.membus.trans_dist::ReadCleanReq        1170720                       # Transaction distribution
system.membus.pkt_count_system.l2.mem_side::system.mem_ctrls0.port      1773421                       # Packet count per connected master and slave (bytes)
system.membus.pkt_count_system.l2.mem_side::system.mem_ctrls1.port      1773953                       # Packet count per connected master and slave (bytes)
system.membus.pkt_count_system.l2.mem_side::total      3547374                       # Packet count per connected master and slave (bytes)
system.membus.pkt_count::total                3547374                       # Packet count per connected master and slave (bytes)
system.membus.pkt_size_system.l2.mem_side::system.mem_ctrls0.port     74964864                       # Cumulative packet size per connected master and slave (bytes)
system.membus.pkt_size_system.l2.mem_side::system.mem_ctrls1.port     74981248                       # Cumulative packet size per connected master and slave (bytes)
system.membus.pkt_size_system.l2.mem_side::total    149946112                       # Cumulative packet size per connected master and slave (bytes)
system.membus.pkt_size::total               149946112                       # Cumulative packet size per connected master and slave (bytes)
system.membus.snoops                                0                       # Total snoops (count)
system.membus.snoopTraffic                          0                       # Total snoop traffic (bytes)
system.membus.snoop_fanout::samples           1194248                       # Request fanout histogram
system.membus.snoop_fanout::mean                    0                       # Request fanout histogram
system.membus.snoop_fanout::stdev                   0                       # Request fanout histogram
system.membus.snoop_fanout::underflows              0      0.00%      0.00% # Request fanout histogram
system.membus.snoop_fanout::0                 1194248    100.00%    100.00% # Request fanout histogram
system.membus.snoop_fanout::1                       0      0.00%    100.00% # Request fanout histogram
system.membus.snoop_fanout::overflows               0      0.00%    100.00% # Request fanout histogram
system.membus.snoop_fanout::min_value               0                       # Request fanout histogram
system.membus.snoop_fanout::max_value               0                       # Request fanout histogram
system.membus.snoop_fanout::total             1194248                       # Request fanout histogram
system.membus.reqLayer2.occupancy          3898803357                       # Layer occupancy (ticks)
system.membus.reqLayer2.utilization               3.9                       # Layer utilization (%)
system.membus.reqLayer3.occupancy          3898844966                       # Layer occupancy (ticks)
system.membus.reqLayer3.utilization               3.9                       # Layer utilization (%)
system.membus.respLayer1.occupancy         6416973963                       # Layer occupancy (ticks)
system.membus.respLayer1.utilization              6.4                       # Layer utilization (%)
system.tol2bus.snoop_filter.tot_requests      3328647                       # Total number of requests made to the snoop filter.
system.tol2bus.snoop_filter.hit_single_requests      1662998                       # Number of requests hitting in the snoop filter with a single holder of the requested data.
system.tol2bus.snoop_filter.hit_multi_requests         4292                       # Number of requests hitting in the snoop filter with multiple (>1) holders of the requested data.
system.tol2bus.snoop_filter.tot_snoops           4261                       # Total number of snoops made to the snoop filter.
system.tol2bus.snoop_filter.hit_single_snoops         4227                       # Number of snoops hitting in the snoop filter with a single holder of the requested data.
system.tol2bus.snoop_filter.hit_multi_snoops           34                       # Number of snoops hitting in the snoop filter with multiple (>1) holders of the requested data.
system.tol2bus.pwrStateResidencyTicks::UNDEFINED 100000000000                       # Cumulative time (in ticks) in various power states
system.tol2bus.trans_dist::ReadResp            475294                       # Transaction distribution
system.tol2bus.trans_dist::WritebackDirty      2460290                       # Transaction distribution
system.tol2bus.trans_dist::WritebackClean       351982                       # Transaction distribution
system.tol2bus.trans_dist::CleanEvict           10218                       # Transaction distribution
system.tol2bus.trans_dist::HardPFReq          1245656                       # Transaction distribution
system.tol2bus.trans_dist::UpgradeReq             719                       # Transaction distribution
system.tol2bus.trans_dist::UpgradeResp            719                       # Transaction distribution
system.tol2bus.trans_dist::ReadExReq          1189747                       # Transaction distribution
system.tol2bus.trans_dist::ReadExResp         1189747                       # Transaction distribution
system.tol2bus.trans_dist::ReadCleanReq        343225                       # Transaction distribution
system.tol2bus.trans_dist::ReadSharedReq       132069                       # Transaction distribution
system.tol2bus.pkt_count_system.cpu.icache.mem_side::system.l2.cpu_side      1027327                       # Packet count per connected master and slave (bytes)
system.tol2bus.pkt_count_system.cpu.dcache.mem_side::system.l2.cpu_side      3965862                       # Packet count per connected master and slave (bytes)
system.tol2bus.pkt_count::total               4993189                       # Packet count per connected master and slave (bytes)
system.tol2bus.pkt_size_system.cpu.icache.mem_side::system.l2.cpu_side     43782528                       # Cumulative packet size per connected master and slave (bytes)
system.tol2bus.pkt_size_system.cpu.dcache.mem_side::system.l2.cpu_side    169126912                       # Cumulative packet size per connected master and slave (bytes)
system.tol2bus.pkt_size::total              212909440                       # Cumulative packet size per connected master and slave (bytes)
system.tol2bus.snoops                         2406477                       # Total snoops (count)
system.tol2bus.snoopTraffic                  73638592                       # Total snoop traffic (bytes)
system.tol2bus.snoop_fanout::samples          4071019                       # Request fanout histogram
system.tol2bus.snoop_fanout::mean            0.002109                       # Request fanout histogram
system.tol2bus.snoop_fanout::stdev           0.046060                       # Request fanout histogram
system.tol2bus.snoop_fanout::underflows             0      0.00%      0.00% # Request fanout histogram
system.tol2bus.snoop_fanout::0                4062466     99.79%     99.79% # Request fanout histogram
system.tol2bus.snoop_fanout::1                   8519      0.21%    100.00% # Request fanout histogram
system.tol2bus.snoop_fanout::2                     34      0.00%    100.00% # Request fanout histogram
system.tol2bus.snoop_fanout::3                      0      0.00%    100.00% # Request fanout histogram
system.tol2bus.snoop_fanout::4                      0      0.00%    100.00% # Request fanout histogram
system.tol2bus.snoop_fanout::overflows              0      0.00%    100.00% # Request fanout histogram
system.tol2bus.snoop_fanout::min_value              0                       # Request fanout histogram
system.tol2bus.snoop_fanout::max_value              2                       # Request fanout histogram
system.tol2bus.snoop_fanout::total            4071019                       # Request fanout histogram
system.tol2bus.reqLayer0.occupancy         3327210500                       # Layer occupancy (ticks)
system.tol2bus.reqLayer0.utilization              3.3                       # Layer utilization (%)
system.tol2bus.respLayer0.occupancy         514852470                       # Layer occupancy (ticks)
system.tol2bus.respLayer0.utilization             0.5                       # Layer utilization (%)
system.tol2bus.respLayer1.occupancy        1983103959                       # Layer occupancy (ticks)
system.tol2bus.respLayer1.utilization             2.0                       # Layer utilization (%)

---------- End Simulation Statistics   ----------
