
---------- Begin Simulation Statistics ----------
sim_seconds                                  0.100000                       # Number of seconds simulated
sim_ticks                                100000000000                       # Number of ticks simulated
final_tick                               100000000000                       # Number of ticks from beginning of simulation (restored from checkpoints and never reset)
sim_freq                                 1000000000000                       # Frequency of simulated ticks
host_inst_rate                                  16758                       # Simulator instruction rate (inst/s)
host_op_rate                                    44632                       # Simulator op (including micro ops) rate (op/s)
host_tick_rate                               19407189                       # Simulator tick rate (ticks/s)
host_mem_usage                               67435640                       # Number of bytes of host memory used
host_seconds                                  5152.73                       # Real time elapsed on the host
sim_insts                                    86351281                       # Number of instructions simulated
sim_ops                                     229975432                       # Number of ops (including micro ops) simulated
system.voltage_domain.voltage                       1                       # Voltage in Volts
system.clk_domain.clock                          1000                       # Clock period in ticks
system.mem_ctrls0.pwrStateResidencyTicks::UNDEFINED 100000000000                       # Cumulative time (in ticks) in various power states
system.mem_ctrls0.bytes_read::.cpu.inst        221184                       # Number of bytes read from this memory
system.mem_ctrls0.bytes_read::.cpu.data       2906432                       # Number of bytes read from this memory
system.mem_ctrls0.bytes_read::.l2.prefetcher     19701056                       # Number of bytes read from this memory
system.mem_ctrls0.bytes_read::total          22828672                       # Number of bytes read from this memory
system.mem_ctrls0.bytes_inst_read::.cpu.inst       221184                       # Number of instructions bytes read from this memory
system.mem_ctrls0.bytes_inst_read::total       221184                       # Number of instructions bytes read from this memory
system.mem_ctrls0.bytes_written::.writebacks     20482816                       # Number of bytes written to this memory
system.mem_ctrls0.bytes_written::total       20482816                       # Number of bytes written to this memory
system.mem_ctrls0.num_reads::.cpu.inst           3456                       # Number of read requests responded to by this memory
system.mem_ctrls0.num_reads::.cpu.data          45413                       # Number of read requests responded to by this memory
system.mem_ctrls0.num_reads::.l2.prefetcher       307829                       # Number of read requests responded to by this memory
system.mem_ctrls0.num_reads::total             356698                       # Number of read requests responded to by this memory
system.mem_ctrls0.num_writes::.writebacks       320044                       # Number of write requests responded to by this memory
system.mem_ctrls0.num_writes::total            320044                       # Number of write requests responded to by this memory
system.mem_ctrls0.bw_read::.cpu.inst          2211840                       # Total read bandwidth from this memory (bytes/s)
system.mem_ctrls0.bw_read::.cpu.data         29064320                       # Total read bandwidth from this memory (bytes/s)
system.mem_ctrls0.bw_read::.l2.prefetcher    197010560                       # Total read bandwidth from this memory (bytes/s)
system.mem_ctrls0.bw_read::total            228286720                       # Total read bandwidth from this memory (bytes/s)
system.mem_ctrls0.bw_inst_read::.cpu.inst      2211840                       # Instruction read bandwidth from this memory (bytes/s)
system.mem_ctrls0.bw_inst_read::total         2211840                       # Instruction read bandwidth from this memory (bytes/s)
system.mem_ctrls0.bw_write::.writebacks     204828160                       # Write bandwidth from this memory (bytes/s)
system.mem_ctrls0.bw_write::total           204828160                       # Write bandwidth from this memory (bytes/s)
system.mem_ctrls0.bw_total::.writebacks     204828160                       # Total bandwidth to/from this memory (bytes/s)
system.mem_ctrls0.bw_total::.cpu.inst         2211840                       # Total bandwidth to/from this memory (bytes/s)
system.mem_ctrls0.bw_total::.cpu.data        29064320                       # Total bandwidth to/from this memory (bytes/s)
system.mem_ctrls0.bw_total::.l2.prefetcher    197010560                       # Total bandwidth to/from this memory (bytes/s)
system.mem_ctrls0.bw_total::total           433114880                       # Total bandwidth to/from this memory (bytes/s)
system.mem_ctrls0.avgPriority_.writebacks::samples    320044.00                       # Average QoS priority value for accepted requests
system.mem_ctrls0.avgPriority_.cpu.inst::samples      3456.00                       # Average QoS priority value for accepted requests
system.mem_ctrls0.avgPriority_.cpu.data::samples     45409.00                       # Average QoS priority value for accepted requests
system.mem_ctrls0.avgPriority_.l2.prefetcher::samples    307828.00                       # Average QoS priority value for accepted requests
system.mem_ctrls0.priorityMinLatency     0.000000017492                       # per QoS priority minimum request to response latency (s)
system.mem_ctrls0.priorityMaxLatency     0.005326227652                       # per QoS priority maximum request to response latency (s)
system.mem_ctrls0.numReadWriteTurnArounds        18251                       # Number of turnarounds from READ to WRITE
system.mem_ctrls0.numWriteReadTurnArounds        18251                       # Number of turnarounds from WRITE to READ
system.mem_ctrls0.numStayReadState            1020003                       # Number of times bus staying in READ state
system.mem_ctrls0.numStayWriteState            303819                       # Number of times bus staying in WRITE state
system.mem_ctrls0.readReqs                     356698                       # Number of read requests accepted
system.mem_ctrls0.writeReqs                    320044                       # Number of write requests accepted
system.mem_ctrls0.readBursts                   356698                       # Number of DRAM read bursts, including those serviced by the write queue
system.mem_ctrls0.writeBursts                  320044                       # Number of DRAM write bursts, including those merged in the write queue
system.mem_ctrls0.bytesReadDRAM              22828352                       # Total number of bytes read from DRAM
system.mem_ctrls0.bytesReadWrQ                    320                       # Total number of bytes read from write queue
system.mem_ctrls0.bytesWritten               20479104                       # Total number of bytes written to DRAM
system.mem_ctrls0.bytesReadSys               22828672                       # Total read bytes from the system interface side
system.mem_ctrls0.bytesWrittenSys            20482816                       # Total written bytes from the system interface side
system.mem_ctrls0.servicedByWrQ                     5                       # Number of DRAM read bursts serviced by the write queue
system.mem_ctrls0.mergedWrBursts                    0                       # Number of DRAM write bursts merged with an existing one
system.mem_ctrls0.neitherReadNorWriteReqs            0                       # Number of requests that are neither read nor write
system.mem_ctrls0.perBankRdBursts::0            11310                       # Per bank write bursts
system.mem_ctrls0.perBankRdBursts::1            11342                       # Per bank write bursts
system.mem_ctrls0.perBankRdBursts::2            11417                       # Per bank write bursts
system.mem_ctrls0.perBankRdBursts::3            10946                       # Per bank write bursts
system.mem_ctrls0.perBankRdBursts::4            10951                       # Per bank write bursts
system.mem_ctrls0.perBankRdBursts::5            11635                       # Per bank write bursts
system.mem_ctrls0.perBankRdBursts::6            11097                       # Per bank write bursts
system.mem_ctrls0.perBankRdBursts::7            11189                       # Per bank write bursts
system.mem_ctrls0.perBankRdBursts::8            11403                       # Per bank write bursts
system.mem_ctrls0.perBankRdBursts::9            11071                       # Per bank write bursts
system.mem_ctrls0.perBankRdBursts::10           11623                       # Per bank write bursts
system.mem_ctrls0.perBankRdBursts::11           10672                       # Per bank write bursts
system.mem_ctrls0.perBankRdBursts::12           11466                       # Per bank write bursts
system.mem_ctrls0.perBankRdBursts::13           10757                       # Per bank write bursts
system.mem_ctrls0.perBankRdBursts::14           11126                       # Per bank write bursts
system.mem_ctrls0.perBankRdBursts::15           10379                       # Per bank write bursts
system.mem_ctrls0.perBankRdBursts::16           12201                       # Per bank write bursts
system.mem_ctrls0.perBankRdBursts::17           11091                       # Per bank write bursts
system.mem_ctrls0.perBankRdBursts::18           10919                       # Per bank write bursts
system.mem_ctrls0.perBankRdBursts::19           10695                       # Per bank write bursts
system.mem_ctrls0.perBankRdBursts::20           10925                       # Per bank write bursts
system.mem_ctrls0.perBankRdBursts::21           11696                       # Per bank write bursts
system.mem_ctrls0.perBankRdBursts::22           11368                       # Per bank write bursts
system.mem_ctrls0.perBankRdBursts::23           10642                       # Per bank write bursts
system.mem_ctrls0.perBankRdBursts::24           11336                       # Per bank write bursts
system.mem_ctrls0.perBankRdBursts::25           11093                       # Per bank write bursts
system.mem_ctrls0.perBankRdBursts::26           11385                       # Per bank write bursts
system.mem_ctrls0.perBankRdBursts::27           10834                       # Per bank write bursts
system.mem_ctrls0.perBankRdBursts::28           10964                       # Per bank write bursts
system.mem_ctrls0.perBankRdBursts::29           11266                       # Per bank write bursts
system.mem_ctrls0.perBankRdBursts::30           10707                       # Per bank write bursts
system.mem_ctrls0.perBankRdBursts::31           11187                       # Per bank write bursts
system.mem_ctrls0.perBankWrBursts::0            10224                       # Per bank write bursts
system.mem_ctrls0.perBankWrBursts::1            10125                       # Per bank write bursts
system.mem_ctrls0.perBankWrBursts::2            10317                       # Per bank write bursts
system.mem_ctrls0.perBankWrBursts::3             9670                       # Per bank write bursts
system.mem_ctrls0.perBankWrBursts::4             9886                       # Per bank write bursts
system.mem_ctrls0.perBankWrBursts::5            10347                       # Per bank write bursts
system.mem_ctrls0.perBankWrBursts::6             9862                       # Per bank write bursts
system.mem_ctrls0.perBankWrBursts::7             9921                       # Per bank write bursts
system.mem_ctrls0.perBankWrBursts::8            10164                       # Per bank write bursts
system.mem_ctrls0.perBankWrBursts::9             9821                       # Per bank write bursts
system.mem_ctrls0.perBankWrBursts::10           10453                       # Per bank write bursts
system.mem_ctrls0.perBankWrBursts::11            9511                       # Per bank write bursts
system.mem_ctrls0.perBankWrBursts::12           10224                       # Per bank write bursts
system.mem_ctrls0.perBankWrBursts::13            9616                       # Per bank write bursts
system.mem_ctrls0.perBankWrBursts::14            9905                       # Per bank write bursts
system.mem_ctrls0.perBankWrBursts::15            9357                       # Per bank write bursts
system.mem_ctrls0.perBankWrBursts::16           10984                       # Per bank write bursts
system.mem_ctrls0.perBankWrBursts::17           10080                       # Per bank write bursts
system.mem_ctrls0.perBankWrBursts::18            9760                       # Per bank write bursts
system.mem_ctrls0.perBankWrBursts::19            9706                       # Per bank write bursts
system.mem_ctrls0.perBankWrBursts::20            9791                       # Per bank write bursts
system.mem_ctrls0.perBankWrBursts::21           10723                       # Per bank write bursts
system.mem_ctrls0.perBankWrBursts::22            9895                       # Per bank write bursts
system.mem_ctrls0.perBankWrBursts::23            9679                       # Per bank write bursts
system.mem_ctrls0.perBankWrBursts::24           10202                       # Per bank write bursts
system.mem_ctrls0.perBankWrBursts::25            9961                       # Per bank write bursts
system.mem_ctrls0.perBankWrBursts::26           10361                       # Per bank write bursts
system.mem_ctrls0.perBankWrBursts::27            9801                       # Per bank write bursts
system.mem_ctrls0.perBankWrBursts::28            9837                       # Per bank write bursts
system.mem_ctrls0.perBankWrBursts::29           10183                       # Per bank write bursts
system.mem_ctrls0.perBankWrBursts::30            9646                       # Per bank write bursts
system.mem_ctrls0.perBankWrBursts::31            9974                       # Per bank write bursts
system.mem_ctrls0.numRdRetry                        0                       # Number of times read queue was full causing retry
system.mem_ctrls0.numWrRetry                        0                       # Number of times write queue was full causing retry
system.mem_ctrls0.totGap                  99999830500                       # Total gap between requests
system.mem_ctrls0.readPktSize::0                    0                       # Read request sizes (log2)
system.mem_ctrls0.readPktSize::1                    0                       # Read request sizes (log2)
system.mem_ctrls0.readPktSize::2                    0                       # Read request sizes (log2)
system.mem_ctrls0.readPktSize::3                    0                       # Read request sizes (log2)
system.mem_ctrls0.readPktSize::4                    0                       # Read request sizes (log2)
system.mem_ctrls0.readPktSize::5                    0                       # Read request sizes (log2)
system.mem_ctrls0.readPktSize::6               356698                       # Read request sizes (log2)
system.mem_ctrls0.writePktSize::0                   0                       # Write request sizes (log2)
system.mem_ctrls0.writePktSize::1                   0                       # Write request sizes (log2)
system.mem_ctrls0.writePktSize::2                   0                       # Write request sizes (log2)
system.mem_ctrls0.writePktSize::3                   0                       # Write request sizes (log2)
system.mem_ctrls0.writePktSize::4                   0                       # Write request sizes (log2)
system.mem_ctrls0.writePktSize::5                   0                       # Write request sizes (log2)
system.mem_ctrls0.writePktSize::6              320044                       # Write request sizes (log2)
system.mem_ctrls0.rdQLenPdf::0                 278835                       # What read queue length does an incoming req see
system.mem_ctrls0.rdQLenPdf::1                  33010                       # What read queue length does an incoming req see
system.mem_ctrls0.rdQLenPdf::2                  19722                       # What read queue length does an incoming req see
system.mem_ctrls0.rdQLenPdf::3                  16608                       # What read queue length does an incoming req see
system.mem_ctrls0.rdQLenPdf::4                   8064                       # What read queue length does an incoming req see
system.mem_ctrls0.rdQLenPdf::5                    198                       # What read queue length does an incoming req see
system.mem_ctrls0.rdQLenPdf::6                    127                       # What read queue length does an incoming req see
system.mem_ctrls0.rdQLenPdf::7                     86                       # What read queue length does an incoming req see
system.mem_ctrls0.rdQLenPdf::8                     42                       # What read queue length does an incoming req see
system.mem_ctrls0.rdQLenPdf::9                      1                       # What read queue length does an incoming req see
system.mem_ctrls0.rdQLenPdf::10                     0                       # What read queue length does an incoming req see
system.mem_ctrls0.rdQLenPdf::11                     0                       # What read queue length does an incoming req see
system.mem_ctrls0.rdQLenPdf::12                     0                       # What read queue length does an incoming req see
system.mem_ctrls0.rdQLenPdf::13                     0                       # What read queue length does an incoming req see
system.mem_ctrls0.rdQLenPdf::14                     0                       # What read queue length does an incoming req see
system.mem_ctrls0.rdQLenPdf::15                     0                       # What read queue length does an incoming req see
system.mem_ctrls0.rdQLenPdf::16                     0                       # What read queue length does an incoming req see
system.mem_ctrls0.rdQLenPdf::17                     0                       # What read queue length does an incoming req see
system.mem_ctrls0.rdQLenPdf::18                     0                       # What read queue length does an incoming req see
system.mem_ctrls0.rdQLenPdf::19                     0                       # What read queue length does an incoming req see
system.mem_ctrls0.rdQLenPdf::20                     0                       # What read queue length does an incoming req see
system.mem_ctrls0.rdQLenPdf::21                     0                       # What read queue length does an incoming req see
system.mem_ctrls0.rdQLenPdf::22                     0                       # What read queue length does an incoming req see
system.mem_ctrls0.rdQLenPdf::23                     0                       # What read queue length does an incoming req see
system.mem_ctrls0.rdQLenPdf::24                     0                       # What read queue length does an incoming req see
system.mem_ctrls0.rdQLenPdf::25                     0                       # What read queue length does an incoming req see
system.mem_ctrls0.rdQLenPdf::26                     0                       # What read queue length does an incoming req see
system.mem_ctrls0.rdQLenPdf::27                     0                       # What read queue length does an incoming req see
system.mem_ctrls0.rdQLenPdf::28                     0                       # What read queue length does an incoming req see
system.mem_ctrls0.rdQLenPdf::29                     0                       # What read queue length does an incoming req see
system.mem_ctrls0.rdQLenPdf::30                     0                       # What read queue length does an incoming req see
system.mem_ctrls0.rdQLenPdf::31                     0                       # What read queue length does an incoming req see
system.mem_ctrls0.rdQLenPdf::32                     0                       # What read queue length does an incoming req see
system.mem_ctrls0.rdQLenPdf::33                     0                       # What read queue length does an incoming req see
system.mem_ctrls0.rdQLenPdf::34                     0                       # What read queue length does an incoming req see
system.mem_ctrls0.rdQLenPdf::35                     0                       # What read queue length does an incoming req see
system.mem_ctrls0.rdQLenPdf::36                     0                       # What read queue length does an incoming req see
system.mem_ctrls0.rdQLenPdf::37                     0                       # What read queue length does an incoming req see
system.mem_ctrls0.rdQLenPdf::38                     0                       # What read queue length does an incoming req see
system.mem_ctrls0.rdQLenPdf::39                     0                       # What read queue length does an incoming req see
system.mem_ctrls0.rdQLenPdf::40                     0                       # What read queue length does an incoming req see
system.mem_ctrls0.rdQLenPdf::41                     0                       # What read queue length does an incoming req see
system.mem_ctrls0.rdQLenPdf::42                     0                       # What read queue length does an incoming req see
system.mem_ctrls0.rdQLenPdf::43                     0                       # What read queue length does an incoming req see
system.mem_ctrls0.rdQLenPdf::44                     0                       # What read queue length does an incoming req see
system.mem_ctrls0.rdQLenPdf::45                     0                       # What read queue length does an incoming req see
system.mem_ctrls0.rdQLenPdf::46                     0                       # What read queue length does an incoming req see
system.mem_ctrls0.rdQLenPdf::47                     0                       # What read queue length does an incoming req see
system.mem_ctrls0.rdQLenPdf::48                     0                       # What read queue length does an incoming req see
system.mem_ctrls0.rdQLenPdf::49                     0                       # What read queue length does an incoming req see
system.mem_ctrls0.rdQLenPdf::50                     0                       # What read queue length does an incoming req see
system.mem_ctrls0.rdQLenPdf::51                     0                       # What read queue length does an incoming req see
system.mem_ctrls0.rdQLenPdf::52                     0                       # What read queue length does an incoming req see
system.mem_ctrls0.rdQLenPdf::53                     0                       # What read queue length does an incoming req see
system.mem_ctrls0.rdQLenPdf::54                     0                       # What read queue length does an incoming req see
system.mem_ctrls0.rdQLenPdf::55                     0                       # What read queue length does an incoming req see
system.mem_ctrls0.rdQLenPdf::56                     0                       # What read queue length does an incoming req see
system.mem_ctrls0.rdQLenPdf::57                     0                       # What read queue length does an incoming req see
system.mem_ctrls0.rdQLenPdf::58                     0                       # What read queue length does an incoming req see
system.mem_ctrls0.rdQLenPdf::59                     0                       # What read queue length does an incoming req see
system.mem_ctrls0.rdQLenPdf::60                     0                       # What read queue length does an incoming req see
system.mem_ctrls0.rdQLenPdf::61                     0                       # What read queue length does an incoming req see
system.mem_ctrls0.rdQLenPdf::62                     0                       # What read queue length does an incoming req see
system.mem_ctrls0.rdQLenPdf::63                     0                       # What read queue length does an incoming req see
system.mem_ctrls0.wrQLenPdf::0                      1                       # What write queue length does an incoming req see
system.mem_ctrls0.wrQLenPdf::1                      1                       # What write queue length does an incoming req see
system.mem_ctrls0.wrQLenPdf::2                      1                       # What write queue length does an incoming req see
system.mem_ctrls0.wrQLenPdf::3                      1                       # What write queue length does an incoming req see
system.mem_ctrls0.wrQLenPdf::4                      1                       # What write queue length does an incoming req see
system.mem_ctrls0.wrQLenPdf::5                      1                       # What write queue length does an incoming req see
system.mem_ctrls0.wrQLenPdf::6                      1                       # What write queue length does an incoming req see
system.mem_ctrls0.wrQLenPdf::7                      1                       # What write queue length does an incoming req see
system.mem_ctrls0.wrQLenPdf::8                      1                       # What write queue length does an incoming req see
system.mem_ctrls0.wrQLenPdf::9                      1                       # What write queue length does an incoming req see
system.mem_ctrls0.wrQLenPdf::10                     1                       # What write queue length does an incoming req see
system.mem_ctrls0.wrQLenPdf::11                     1                       # What write queue length does an incoming req see
system.mem_ctrls0.wrQLenPdf::12                     1                       # What write queue length does an incoming req see
system.mem_ctrls0.wrQLenPdf::13                     1                       # What write queue length does an incoming req see
system.mem_ctrls0.wrQLenPdf::14                     1                       # What write queue length does an incoming req see
system.mem_ctrls0.wrQLenPdf::15                     1                       # What write queue length does an incoming req see
system.mem_ctrls0.wrQLenPdf::16                     1                       # What write queue length does an incoming req see
system.mem_ctrls0.wrQLenPdf::17                     1                       # What write queue length does an incoming req see
system.mem_ctrls0.wrQLenPdf::18                     1                       # What write queue length does an incoming req see
system.mem_ctrls0.wrQLenPdf::19                     1                       # What write queue length does an incoming req see
system.mem_ctrls0.wrQLenPdf::20                     1                       # What write queue length does an incoming req see
system.mem_ctrls0.wrQLenPdf::21                     1                       # What write queue length does an incoming req see
system.mem_ctrls0.wrQLenPdf::22                     1                       # What write queue length does an incoming req see
system.mem_ctrls0.wrQLenPdf::23                     1                       # What write queue length does an incoming req see
system.mem_ctrls0.wrQLenPdf::24                     1                       # What write queue length does an incoming req see
system.mem_ctrls0.wrQLenPdf::25                     1                       # What write queue length does an incoming req see
system.mem_ctrls0.wrQLenPdf::26                     1                       # What write queue length does an incoming req see
system.mem_ctrls0.wrQLenPdf::27                     1                       # What write queue length does an incoming req see
system.mem_ctrls0.wrQLenPdf::28                     1                       # What write queue length does an incoming req see
system.mem_ctrls0.wrQLenPdf::29                     1                       # What write queue length does an incoming req see
system.mem_ctrls0.wrQLenPdf::30                     1                       # What write queue length does an incoming req see
system.mem_ctrls0.wrQLenPdf::31                     1                       # What write queue length does an incoming req see
system.mem_ctrls0.wrQLenPdf::32                     1                       # What write queue length does an incoming req see
system.mem_ctrls0.wrQLenPdf::33                     1                       # What write queue length does an incoming req see
system.mem_ctrls0.wrQLenPdf::34                     1                       # What write queue length does an incoming req see
system.mem_ctrls0.wrQLenPdf::35                     1                       # What write queue length does an incoming req see
system.mem_ctrls0.wrQLenPdf::36                     1                       # What write queue length does an incoming req see
system.mem_ctrls0.wrQLenPdf::37                     1                       # What write queue length does an incoming req see
system.mem_ctrls0.wrQLenPdf::38                     1                       # What write queue length does an incoming req see
system.mem_ctrls0.wrQLenPdf::39                     1                       # What write queue length does an incoming req see
system.mem_ctrls0.wrQLenPdf::40                     1                       # What write queue length does an incoming req see
system.mem_ctrls0.wrQLenPdf::41                     1                       # What write queue length does an incoming req see
system.mem_ctrls0.wrQLenPdf::42                     1                       # What write queue length does an incoming req see
system.mem_ctrls0.wrQLenPdf::43                     1                       # What write queue length does an incoming req see
system.mem_ctrls0.wrQLenPdf::44                     1                       # What write queue length does an incoming req see
system.mem_ctrls0.wrQLenPdf::45                     1                       # What write queue length does an incoming req see
system.mem_ctrls0.wrQLenPdf::46                     1                       # What write queue length does an incoming req see
system.mem_ctrls0.wrQLenPdf::47                  9676                       # What write queue length does an incoming req see
system.mem_ctrls0.wrQLenPdf::48                 10851                       # What write queue length does an incoming req see
system.mem_ctrls0.wrQLenPdf::49                 15843                       # What write queue length does an incoming req see
system.mem_ctrls0.wrQLenPdf::50                 18608                       # What write queue length does an incoming req see
system.mem_ctrls0.wrQLenPdf::51                 18815                       # What write queue length does an incoming req see
system.mem_ctrls0.wrQLenPdf::52                 18888                       # What write queue length does an incoming req see
system.mem_ctrls0.wrQLenPdf::53                 18994                       # What write queue length does an incoming req see
system.mem_ctrls0.wrQLenPdf::54                 18909                       # What write queue length does an incoming req see
system.mem_ctrls0.wrQLenPdf::55                 18851                       # What write queue length does an incoming req see
system.mem_ctrls0.wrQLenPdf::56                 19013                       # What write queue length does an incoming req see
system.mem_ctrls0.wrQLenPdf::57                 19125                       # What write queue length does an incoming req see
system.mem_ctrls0.wrQLenPdf::58                 19211                       # What write queue length does an incoming req see
system.mem_ctrls0.wrQLenPdf::59                 19431                       # What write queue length does an incoming req see
system.mem_ctrls0.wrQLenPdf::60                 19064                       # What write queue length does an incoming req see
system.mem_ctrls0.wrQLenPdf::61                 19051                       # What write queue length does an incoming req see
system.mem_ctrls0.wrQLenPdf::62                 18377                       # What write queue length does an incoming req see
system.mem_ctrls0.wrQLenPdf::63                 18316                       # What write queue length does an incoming req see
system.mem_ctrls0.wrQLenPdf::64                 18291                       # What write queue length does an incoming req see
system.mem_ctrls0.wrQLenPdf::65                   327                       # What write queue length does an incoming req see
system.mem_ctrls0.wrQLenPdf::66                   182                       # What write queue length does an incoming req see
system.mem_ctrls0.wrQLenPdf::67                    95                       # What write queue length does an incoming req see
system.mem_ctrls0.wrQLenPdf::68                    41                       # What write queue length does an incoming req see
system.mem_ctrls0.wrQLenPdf::69                    18                       # What write queue length does an incoming req see
system.mem_ctrls0.wrQLenPdf::70                    11                       # What write queue length does an incoming req see
system.mem_ctrls0.wrQLenPdf::71                     6                       # What write queue length does an incoming req see
system.mem_ctrls0.wrQLenPdf::72                     2                       # What write queue length does an incoming req see
system.mem_ctrls0.wrQLenPdf::73                     1                       # What write queue length does an incoming req see
system.mem_ctrls0.wrQLenPdf::74                     0                       # What write queue length does an incoming req see
system.mem_ctrls0.wrQLenPdf::75                     0                       # What write queue length does an incoming req see
system.mem_ctrls0.wrQLenPdf::76                     0                       # What write queue length does an incoming req see
system.mem_ctrls0.wrQLenPdf::77                     0                       # What write queue length does an incoming req see
system.mem_ctrls0.wrQLenPdf::78                     0                       # What write queue length does an incoming req see
system.mem_ctrls0.wrQLenPdf::79                     0                       # What write queue length does an incoming req see
system.mem_ctrls0.wrQLenPdf::80                     0                       # What write queue length does an incoming req see
system.mem_ctrls0.wrQLenPdf::81                     0                       # What write queue length does an incoming req see
system.mem_ctrls0.wrQLenPdf::82                     0                       # What write queue length does an incoming req see
system.mem_ctrls0.wrQLenPdf::83                     0                       # What write queue length does an incoming req see
system.mem_ctrls0.wrQLenPdf::84                     0                       # What write queue length does an incoming req see
system.mem_ctrls0.wrQLenPdf::85                     0                       # What write queue length does an incoming req see
system.mem_ctrls0.wrQLenPdf::86                     0                       # What write queue length does an incoming req see
system.mem_ctrls0.wrQLenPdf::87                     0                       # What write queue length does an incoming req see
system.mem_ctrls0.wrQLenPdf::88                     0                       # What write queue length does an incoming req see
system.mem_ctrls0.wrQLenPdf::89                     0                       # What write queue length does an incoming req see
system.mem_ctrls0.wrQLenPdf::90                     0                       # What write queue length does an incoming req see
system.mem_ctrls0.wrQLenPdf::91                     0                       # What write queue length does an incoming req see
system.mem_ctrls0.wrQLenPdf::92                     0                       # What write queue length does an incoming req see
system.mem_ctrls0.wrQLenPdf::93                     0                       # What write queue length does an incoming req see
system.mem_ctrls0.wrQLenPdf::94                     0                       # What write queue length does an incoming req see
system.mem_ctrls0.wrQLenPdf::95                     0                       # What write queue length does an incoming req see
system.mem_ctrls0.wrQLenPdf::96                     0                       # What write queue length does an incoming req see
system.mem_ctrls0.wrQLenPdf::97                     0                       # What write queue length does an incoming req see
system.mem_ctrls0.wrQLenPdf::98                     0                       # What write queue length does an incoming req see
system.mem_ctrls0.wrQLenPdf::99                     0                       # What write queue length does an incoming req see
system.mem_ctrls0.wrQLenPdf::100                    0                       # What write queue length does an incoming req see
system.mem_ctrls0.wrQLenPdf::101                    0                       # What write queue length does an incoming req see
system.mem_ctrls0.wrQLenPdf::102                    0                       # What write queue length does an incoming req see
system.mem_ctrls0.wrQLenPdf::103                    0                       # What write queue length does an incoming req see
system.mem_ctrls0.wrQLenPdf::104                    0                       # What write queue length does an incoming req see
system.mem_ctrls0.wrQLenPdf::105                    0                       # What write queue length does an incoming req see
system.mem_ctrls0.wrQLenPdf::106                    0                       # What write queue length does an incoming req see
system.mem_ctrls0.wrQLenPdf::107                    0                       # What write queue length does an incoming req see
system.mem_ctrls0.wrQLenPdf::108                    0                       # What write queue length does an incoming req see
system.mem_ctrls0.wrQLenPdf::109                    0                       # What write queue length does an incoming req see
system.mem_ctrls0.wrQLenPdf::110                    0                       # What write queue length does an incoming req see
system.mem_ctrls0.wrQLenPdf::111                    0                       # What write queue length does an incoming req see
system.mem_ctrls0.wrQLenPdf::112                    0                       # What write queue length does an incoming req see
system.mem_ctrls0.wrQLenPdf::113                    0                       # What write queue length does an incoming req see
system.mem_ctrls0.wrQLenPdf::114                    0                       # What write queue length does an incoming req see
system.mem_ctrls0.wrQLenPdf::115                    0                       # What write queue length does an incoming req see
system.mem_ctrls0.wrQLenPdf::116                    0                       # What write queue length does an incoming req see
system.mem_ctrls0.wrQLenPdf::117                    0                       # What write queue length does an incoming req see
system.mem_ctrls0.wrQLenPdf::118                    0                       # What write queue length does an incoming req see
system.mem_ctrls0.wrQLenPdf::119                    0                       # What write queue length does an incoming req see
system.mem_ctrls0.wrQLenPdf::120                    0                       # What write queue length does an incoming req see
system.mem_ctrls0.wrQLenPdf::121                    0                       # What write queue length does an incoming req see
system.mem_ctrls0.wrQLenPdf::122                    0                       # What write queue length does an incoming req see
system.mem_ctrls0.wrQLenPdf::123                    0                       # What write queue length does an incoming req see
system.mem_ctrls0.wrQLenPdf::124                    0                       # What write queue length does an incoming req see
system.mem_ctrls0.wrQLenPdf::125                    0                       # What write queue length does an incoming req see
system.mem_ctrls0.wrQLenPdf::126                    0                       # What write queue length does an incoming req see
system.mem_ctrls0.wrQLenPdf::127                    0                       # What write queue length does an incoming req see
system.mem_ctrls0.bytesPerActivate::samples       132630                       # Bytes accessed per row activation
system.mem_ctrls0.bytesPerActivate::mean   326.524979                       # Bytes accessed per row activation
system.mem_ctrls0.bytesPerActivate::gmean   201.209093                       # Bytes accessed per row activation
system.mem_ctrls0.bytesPerActivate::stdev   317.779052                       # Bytes accessed per row activation
system.mem_ctrls0.bytesPerActivate::0-127        43573     32.85%     32.85% # Bytes accessed per row activation
system.mem_ctrls0.bytesPerActivate::128-255        28480     21.47%     54.33% # Bytes accessed per row activation
system.mem_ctrls0.bytesPerActivate::256-383        16800     12.67%     66.99% # Bytes accessed per row activation
system.mem_ctrls0.bytesPerActivate::384-511        11303      8.52%     75.52% # Bytes accessed per row activation
system.mem_ctrls0.bytesPerActivate::512-639         7406      5.58%     81.10% # Bytes accessed per row activation
system.mem_ctrls0.bytesPerActivate::640-767         4769      3.60%     84.70% # Bytes accessed per row activation
system.mem_ctrls0.bytesPerActivate::768-895         3701      2.79%     87.49% # Bytes accessed per row activation
system.mem_ctrls0.bytesPerActivate::896-1023         3324      2.51%     89.99% # Bytes accessed per row activation
system.mem_ctrls0.bytesPerActivate::1024-1151        13274     10.01%    100.00% # Bytes accessed per row activation
system.mem_ctrls0.bytesPerActivate::total       132630                       # Bytes accessed per row activation
system.mem_ctrls0.rdPerTurnAround::samples        18251                       # Reads before turning the bus around for writes
system.mem_ctrls0.rdPerTurnAround::mean     19.543148                       # Reads before turning the bus around for writes
system.mem_ctrls0.rdPerTurnAround::stdev   101.078229                       # Reads before turning the bus around for writes
system.mem_ctrls0.rdPerTurnAround::0-255        18248     99.98%     99.98% # Reads before turning the bus around for writes
system.mem_ctrls0.rdPerTurnAround::256-511            1      0.01%     99.99% # Reads before turning the bus around for writes
system.mem_ctrls0.rdPerTurnAround::768-1023            1      0.01%     99.99% # Reads before turning the bus around for writes
system.mem_ctrls0.rdPerTurnAround::13568-13823            1      0.01%    100.00% # Reads before turning the bus around for writes
system.mem_ctrls0.rdPerTurnAround::total        18251                       # Reads before turning the bus around for writes
system.mem_ctrls0.wrPerTurnAround::samples        18251                       # Writes before turning the bus around for reads
system.mem_ctrls0.wrPerTurnAround::mean     17.532519                       # Writes before turning the bus around for reads
system.mem_ctrls0.wrPerTurnAround::gmean    17.470412                       # Writes before turning the bus around for reads
system.mem_ctrls0.wrPerTurnAround::stdev     1.497714                       # Writes before turning the bus around for reads
system.mem_ctrls0.wrPerTurnAround::16            7424     40.68%     40.68% # Writes before turning the bus around for reads
system.mem_ctrls0.wrPerTurnAround::17             680      3.73%     44.40% # Writes before turning the bus around for reads
system.mem_ctrls0.wrPerTurnAround::18            5660     31.01%     75.42% # Writes before turning the bus around for reads
system.mem_ctrls0.wrPerTurnAround::19            2872     15.74%     91.15% # Writes before turning the bus around for reads
system.mem_ctrls0.wrPerTurnAround::20             951      5.21%     96.36% # Writes before turning the bus around for reads
system.mem_ctrls0.wrPerTurnAround::21             509      2.79%     99.15% # Writes before turning the bus around for reads
system.mem_ctrls0.wrPerTurnAround::22             114      0.62%     99.78% # Writes before turning the bus around for reads
system.mem_ctrls0.wrPerTurnAround::23              24      0.13%     99.91% # Writes before turning the bus around for reads
system.mem_ctrls0.wrPerTurnAround::24               9      0.05%     99.96% # Writes before turning the bus around for reads
system.mem_ctrls0.wrPerTurnAround::25               4      0.02%     99.98% # Writes before turning the bus around for reads
system.mem_ctrls0.wrPerTurnAround::26               2      0.01%     99.99% # Writes before turning the bus around for reads
system.mem_ctrls0.wrPerTurnAround::28               1      0.01%     99.99% # Writes before turning the bus around for reads
system.mem_ctrls0.wrPerTurnAround::29               1      0.01%    100.00% # Writes before turning the bus around for reads
system.mem_ctrls0.wrPerTurnAround::total        18251                       # Writes before turning the bus around for reads
system.mem_ctrls0.masterReadBytes::.cpu.inst       221184                       # Per-master bytes read from memory
system.mem_ctrls0.masterReadBytes::.cpu.data      2906176                       # Per-master bytes read from memory
system.mem_ctrls0.masterReadBytes::.l2.prefetcher     19700992                       # Per-master bytes read from memory
system.mem_ctrls0.masterWriteBytes::.writebacks     20479104                       # Per-master bytes write to memory
system.mem_ctrls0.masterReadRate::.cpu.inst 2211840.000000000000                       # Per-master bytes read from memory rate (Bytes/sec)
system.mem_ctrls0.masterReadRate::.cpu.data 29061760.000000000000                       # Per-master bytes read from memory rate (Bytes/sec)
system.mem_ctrls0.masterReadRate::.l2.prefetcher 197009920.000000000000                       # Per-master bytes read from memory rate (Bytes/sec)
system.mem_ctrls0.masterWriteRate::.writebacks 204791040.000000000000                       # Per-master bytes write to memory rate (Bytes/sec)
system.mem_ctrls0.masterReadAccesses::.cpu.inst         3456                       # Per-master read serviced memory accesses
system.mem_ctrls0.masterReadAccesses::.cpu.data        45413                       # Per-master read serviced memory accesses
system.mem_ctrls0.masterReadAccesses::.l2.prefetcher       307829                       # Per-master read serviced memory accesses
system.mem_ctrls0.masterWriteAccesses::.writebacks       320044                       # Per-master write serviced memory accesses
system.mem_ctrls0.masterReadTotalLat::.cpu.inst    180444884                       # Per-master read total memory access latency
system.mem_ctrls0.masterReadTotalLat::.cpu.data   2719107849                       # Per-master read total memory access latency
system.mem_ctrls0.masterReadTotalLat::.l2.prefetcher  13308761584                       # Per-master read total memory access latency
system.mem_ctrls0.masterWriteTotalLat::.writebacks 5099763141666                       # Per-master write total memory access latency
system.mem_ctrls0.masterReadAvgLat::.cpu.inst     52212.06                       # Per-master read average memory access latency
system.mem_ctrls0.masterReadAvgLat::.cpu.data     59875.10                       # Per-master read average memory access latency
system.mem_ctrls0.masterReadAvgLat::.l2.prefetcher     43234.27                       # Per-master read average memory access latency
system.mem_ctrls0.masterWriteAvgLat::.writebacks  15934568.81                       # Per-master write average memory access latency
system.mem_ctrls0.totQLat                  9969040361                       # Total ticks spent queuing
system.mem_ctrls0.totMemAccLat            16208314317                       # Total ticks spent from burst creation until serviced by the DRAM
system.mem_ctrls0.totBusLat                1188501076                       # Total ticks spent in databus transfers
system.mem_ctrls0.avgQLat                    27948.52                       # Average queueing delay per DRAM burst
system.mem_ctrls0.avgBusLat                   3332.00                       # Average bus latency per DRAM burst
system.mem_ctrls0.avgMemAccLat               45440.52                       # Average memory access latency per DRAM burst
system.mem_ctrls0.avgRdBW                      228.28                       # Average DRAM read bandwidth in MiByte/s
system.mem_ctrls0.avgWrBW                      204.79                       # Average achieved write bandwidth in MiByte/s
system.mem_ctrls0.avgRdBWSys                   228.29                       # Average system read bandwidth in MiByte/s
system.mem_ctrls0.avgWrBWSys                   204.83                       # Average system write bandwidth in MiByte/s
system.mem_ctrls0.peakBW                     19207.00                       # Theoretical peak bandwidth in MiByte/s
system.mem_ctrls0.busUtil                        2.25                       # Data bus utilization in percentage
system.mem_ctrls0.busUtilRead                    1.19                       # Data bus utilization in percentage for reads
system.mem_ctrls0.busUtilWrite                   1.07                       # Data bus utilization in percentage for writes
system.mem_ctrls0.avgRdQLen                      1.49                       # Average read queue length when enqueuing
system.mem_ctrls0.avgWrQLen                     51.95                       # Average write queue length when enqueuing
system.mem_ctrls0.readRowHits                  310864                       # Number of row buffer hits during reads
system.mem_ctrls0.writeRowHits                 233184                       # Number of row buffer hits during writes
system.mem_ctrls0.readRowHitRate                87.15                       # Row buffer hit rate for reads
system.mem_ctrls0.writeRowHitRate               72.86                       # Row buffer hit rate for writes
system.mem_ctrls0.avgGap                    147766.55                       # Average gap between requests
system.mem_ctrls0.pageHitRate                   80.39                       # Row buffer hit rate, read and write combined
system.mem_ctrls0_0.actEnergy            205407244.224003                       # Energy for activate commands per rank (pJ)
system.mem_ctrls0_0.preEnergy            273086297.769600                       # Energy for precharge commands per rank (pJ)
system.mem_ctrls0_0.readEnergy           750339616.051175                       # Energy for read commands per rank (pJ)
system.mem_ctrls0_0.writeEnergy          599115537.887995                       # Energy for write commands per rank (pJ)
system.mem_ctrls0_0.refreshEnergy        15503761025.991581                       # Energy for refresh commands per rank (pJ)
system.mem_ctrls0_0.actBackEnergy        21283240221.230759                       # Energy for active background per rank (pJ)
system.mem_ctrls0_0.preBackEnergy        713917774.617645                       # Energy for precharge background per rank (pJ)
system.mem_ctrls0_0.actPowerDownEnergy   20146335936.921555                       # Energy for active power-down per rank (pJ)
system.mem_ctrls0_0.prePowerDownEnergy   13889242080.000431                       # Energy for precharge power-down per rank (pJ)
system.mem_ctrls0_0.selfRefreshEnergy    9580444592.678402                       # Energy for self refresh per rank (pJ)
system.mem_ctrls0_0.totalEnergy          82964574542.538940                       # Total energy per rank (pJ)
system.mem_ctrls0_0.averagePower           829.645745                       # Core power per rank (mW)
system.mem_ctrls0_0.totalIdleTime         73827775911                       # Total Idle time Per DRAM Rank
system.mem_ctrls0_0.memoryStateTime::IDLE    818837722                       # Time in different power states
system.mem_ctrls0_0.memoryStateTime::REF   3916850000                       # Time in different power states
system.mem_ctrls0_0.memoryStateTime::SREF  12105664240                       # Time in different power states
system.mem_ctrls0_0.memoryStateTime::PRE_PDN  28935913449                       # Time in different power states
system.mem_ctrls0_0.memoryStateTime::ACT  21432338207                       # Time in different power states
system.mem_ctrls0_0.memoryStateTime::ACT_PDN  32790396382                       # Time in different power states
system.mem_ctrls0_1.actEnergy            208235952.288002                       # Energy for activate commands per rank (pJ)
system.mem_ctrls0_1.preEnergy            276842882.534399                       # Energy for precharge commands per rank (pJ)
system.mem_ctrls0_1.readEnergy           750024142.291174                       # Energy for read commands per rank (pJ)
system.mem_ctrls0_1.writeEnergy          603550563.167994                       # Energy for write commands per rank (pJ)
system.mem_ctrls0_1.refreshEnergy        15869500719.572163                       # Energy for refresh commands per rank (pJ)
system.mem_ctrls0_1.actBackEnergy        21505791677.026073                       # Energy for active background per rank (pJ)
system.mem_ctrls0_1.preBackEnergy        723617765.068848                       # Energy for precharge background per rank (pJ)
system.mem_ctrls0_1.actPowerDownEnergy   20965921187.635120                       # Energy for active power-down per rank (pJ)
system.mem_ctrls0_1.prePowerDownEnergy   14100010538.880497                       # Energy for precharge power-down per rank (pJ)
system.mem_ctrls0_1.selfRefreshEnergy    8390270356.876801                       # Energy for self refresh per rank (pJ)
system.mem_ctrls0_1.totalEnergy          83414358892.804947                       # Total energy per rank (pJ)
system.mem_ctrls0_1.averagePower           834.143589                       # Core power per rank (mW)
system.mem_ctrls0_1.totalIdleTime         73553850275                       # Total Idle time Per DRAM Rank
system.mem_ctrls0_1.memoryStateTime::IDLE    827130475                       # Time in different power states
system.mem_ctrls0_1.memoryStateTime::REF   4009250000                       # Time in different power states
system.mem_ctrls0_1.memoryStateTime::SREF  10054813480                       # Time in different power states
system.mem_ctrls0_1.memoryStateTime::PRE_PDN  29374968167                       # Time in different power states
system.mem_ctrls0_1.memoryStateTime::ACT  21609671743                       # Time in different power states
system.mem_ctrls0_1.memoryStateTime::ACT_PDN  34124166135                       # Time in different power states
system.mem_ctrls1.pwrStateResidencyTicks::UNDEFINED 100000000000                       # Cumulative time (in ticks) in various power states
system.mem_ctrls1.bytes_read::.cpu.inst        203264                       # Number of bytes read from this memory
system.mem_ctrls1.bytes_read::.cpu.data       2918144                       # Number of bytes read from this memory
system.mem_ctrls1.bytes_read::.l2.prefetcher     19682816                       # Number of bytes read from this memory
system.mem_ctrls1.bytes_read::total          22804224                       # Number of bytes read from this memory
system.mem_ctrls1.bytes_inst_read::.cpu.inst       203264                       # Number of instructions bytes read from this memory
system.mem_ctrls1.bytes_inst_read::total       203264                       # Number of instructions bytes read from this memory
system.mem_ctrls1.bytes_written::.writebacks     20485632                       # Number of bytes written to this memory
system.mem_ctrls1.bytes_written::total       20485632                       # Number of bytes written to this memory
system.mem_ctrls1.num_reads::.cpu.inst           3176                       # Number of read requests responded to by this memory
system.mem_ctrls1.num_reads::.cpu.data          45596                       # Number of read requests responded to by this memory
system.mem_ctrls1.num_reads::.l2.prefetcher       307544                       # Number of read requests responded to by this memory
system.mem_ctrls1.num_reads::total             356316                       # Number of read requests responded to by this memory
system.mem_ctrls1.num_writes::.writebacks       320088                       # Number of write requests responded to by this memory
system.mem_ctrls1.num_writes::total            320088                       # Number of write requests responded to by this memory
system.mem_ctrls1.bw_read::.cpu.inst          2032640                       # Total read bandwidth from this memory (bytes/s)
system.mem_ctrls1.bw_read::.cpu.data         29181440                       # Total read bandwidth from this memory (bytes/s)
system.mem_ctrls1.bw_read::.l2.prefetcher    196828160                       # Total read bandwidth from this memory (bytes/s)
system.mem_ctrls1.bw_read::total            228042240                       # Total read bandwidth from this memory (bytes/s)
system.mem_ctrls1.bw_inst_read::.cpu.inst      2032640                       # Instruction read bandwidth from this memory (bytes/s)
system.mem_ctrls1.bw_inst_read::total         2032640                       # Instruction read bandwidth from this memory (bytes/s)
system.mem_ctrls1.bw_write::.writebacks     204856320                       # Write bandwidth from this memory (bytes/s)
system.mem_ctrls1.bw_write::total           204856320                       # Write bandwidth from this memory (bytes/s)
system.mem_ctrls1.bw_total::.writebacks     204856320                       # Total bandwidth to/from this memory (bytes/s)
system.mem_ctrls1.bw_total::.cpu.inst         2032640                       # Total bandwidth to/from this memory (bytes/s)
system.mem_ctrls1.bw_total::.cpu.data        29181440                       # Total bandwidth to/from this memory (bytes/s)
system.mem_ctrls1.bw_total::.l2.prefetcher    196828160                       # Total bandwidth to/from this memory (bytes/s)
system.mem_ctrls1.bw_total::total           432898560                       # Total bandwidth to/from this memory (bytes/s)
system.mem_ctrls1.avgPriority_.writebacks::samples    320088.00                       # Average QoS priority value for accepted requests
system.mem_ctrls1.avgPriority_.cpu.inst::samples      3176.00                       # Average QoS priority value for accepted requests
system.mem_ctrls1.avgPriority_.cpu.data::samples     45590.00                       # Average QoS priority value for accepted requests
system.mem_ctrls1.avgPriority_.l2.prefetcher::samples    307538.00                       # Average QoS priority value for accepted requests
system.mem_ctrls1.priorityMinLatency     0.000000017492                       # per QoS priority minimum request to response latency (s)
system.mem_ctrls1.priorityMaxLatency     0.004166547806                       # per QoS priority maximum request to response latency (s)
system.mem_ctrls1.numReadWriteTurnArounds        18253                       # Number of turnarounds from READ to WRITE
system.mem_ctrls1.numWriteReadTurnArounds        18253                       # Number of turnarounds from WRITE to READ
system.mem_ctrls1.numStayReadState            1019744                       # Number of times bus staying in READ state
system.mem_ctrls1.numStayWriteState            303805                       # Number of times bus staying in WRITE state
system.mem_ctrls1.readReqs                     356316                       # Number of read requests accepted
system.mem_ctrls1.writeReqs                    320088                       # Number of write requests accepted
system.mem_ctrls1.readBursts                   356316                       # Number of DRAM read bursts, including those serviced by the write queue
system.mem_ctrls1.writeBursts                  320088                       # Number of DRAM write bursts, including those merged in the write queue
system.mem_ctrls1.bytesReadDRAM              22803456                       # Total number of bytes read from DRAM
system.mem_ctrls1.bytesReadWrQ                    768                       # Total number of bytes read from write queue
system.mem_ctrls1.bytesWritten               20482240                       # Total number of bytes written to DRAM
system.mem_ctrls1.bytesReadSys               22804224                       # Total read bytes from the system interface side
system.mem_ctrls1.bytesWrittenSys            20485632                       # Total written bytes from the system interface side
system.mem_ctrls1.servicedByWrQ                    12                       # Number of DRAM read bursts serviced by the write queue
system.mem_ctrls1.mergedWrBursts                    0                       # Number of DRAM write bursts merged with an existing one
system.mem_ctrls1.neitherReadNorWriteReqs            0                       # Number of requests that are neither read nor write
system.mem_ctrls1.perBankRdBursts::0            11325                       # Per bank write bursts
system.mem_ctrls1.perBankRdBursts::1            11353                       # Per bank write bursts
system.mem_ctrls1.perBankRdBursts::2            11432                       # Per bank write bursts
system.mem_ctrls1.perBankRdBursts::3            10924                       # Per bank write bursts
system.mem_ctrls1.perBankRdBursts::4            10952                       # Per bank write bursts
system.mem_ctrls1.perBankRdBursts::5            11689                       # Per bank write bursts
system.mem_ctrls1.perBankRdBursts::6            11063                       # Per bank write bursts
system.mem_ctrls1.perBankRdBursts::7            11153                       # Per bank write bursts
system.mem_ctrls1.perBankRdBursts::8            11402                       # Per bank write bursts
system.mem_ctrls1.perBankRdBursts::9            11079                       # Per bank write bursts
system.mem_ctrls1.perBankRdBursts::10           11640                       # Per bank write bursts
system.mem_ctrls1.perBankRdBursts::11           10687                       # Per bank write bursts
system.mem_ctrls1.perBankRdBursts::12           11471                       # Per bank write bursts
system.mem_ctrls1.perBankRdBursts::13           10745                       # Per bank write bursts
system.mem_ctrls1.perBankRdBursts::14           11103                       # Per bank write bursts
system.mem_ctrls1.perBankRdBursts::15           10389                       # Per bank write bursts
system.mem_ctrls1.perBankRdBursts::16           12188                       # Per bank write bursts
system.mem_ctrls1.perBankRdBursts::17           11089                       # Per bank write bursts
system.mem_ctrls1.perBankRdBursts::18           10937                       # Per bank write bursts
system.mem_ctrls1.perBankRdBursts::19           10682                       # Per bank write bursts
system.mem_ctrls1.perBankRdBursts::20           10893                       # Per bank write bursts
system.mem_ctrls1.perBankRdBursts::21           11689                       # Per bank write bursts
system.mem_ctrls1.perBankRdBursts::22           11145                       # Per bank write bursts
system.mem_ctrls1.perBankRdBursts::23           10630                       # Per bank write bursts
system.mem_ctrls1.perBankRdBursts::24           11285                       # Per bank write bursts
system.mem_ctrls1.perBankRdBursts::25           11057                       # Per bank write bursts
system.mem_ctrls1.perBankRdBursts::26           11378                       # Per bank write bursts
system.mem_ctrls1.perBankRdBursts::27           10838                       # Per bank write bursts
system.mem_ctrls1.perBankRdBursts::28           10969                       # Per bank write bursts
system.mem_ctrls1.perBankRdBursts::29           11250                       # Per bank write bursts
system.mem_ctrls1.perBankRdBursts::30           10692                       # Per bank write bursts
system.mem_ctrls1.perBankRdBursts::31           11175                       # Per bank write bursts
system.mem_ctrls1.perBankWrBursts::0            10241                       # Per bank write bursts
system.mem_ctrls1.perBankWrBursts::1            10142                       # Per bank write bursts
system.mem_ctrls1.perBankWrBursts::2            10321                       # Per bank write bursts
system.mem_ctrls1.perBankWrBursts::3             9662                       # Per bank write bursts
system.mem_ctrls1.perBankWrBursts::4             9871                       # Per bank write bursts
system.mem_ctrls1.perBankWrBursts::5            10381                       # Per bank write bursts
system.mem_ctrls1.perBankWrBursts::6             9853                       # Per bank write bursts
system.mem_ctrls1.perBankWrBursts::7             9879                       # Per bank write bursts
system.mem_ctrls1.perBankWrBursts::8            10171                       # Per bank write bursts
system.mem_ctrls1.perBankWrBursts::9             9837                       # Per bank write bursts
system.mem_ctrls1.perBankWrBursts::10           10469                       # Per bank write bursts
system.mem_ctrls1.perBankWrBursts::11            9528                       # Per bank write bursts
system.mem_ctrls1.perBankWrBursts::12           10236                       # Per bank write bursts
system.mem_ctrls1.perBankWrBursts::13            9609                       # Per bank write bursts
system.mem_ctrls1.perBankWrBursts::14            9885                       # Per bank write bursts
system.mem_ctrls1.perBankWrBursts::15            9366                       # Per bank write bursts
system.mem_ctrls1.perBankWrBursts::16           10977                       # Per bank write bursts
system.mem_ctrls1.perBankWrBursts::17           10093                       # Per bank write bursts
system.mem_ctrls1.perBankWrBursts::18            9776                       # Per bank write bursts
system.mem_ctrls1.perBankWrBursts::19            9681                       # Per bank write bursts
system.mem_ctrls1.perBankWrBursts::20            9793                       # Per bank write bursts
system.mem_ctrls1.perBankWrBursts::21           10709                       # Per bank write bursts
system.mem_ctrls1.perBankWrBursts::22            9938                       # Per bank write bursts
system.mem_ctrls1.perBankWrBursts::23            9677                       # Per bank write bursts
system.mem_ctrls1.perBankWrBursts::24           10198                       # Per bank write bursts
system.mem_ctrls1.perBankWrBursts::25            9951                       # Per bank write bursts
system.mem_ctrls1.perBankWrBursts::26           10357                       # Per bank write bursts
system.mem_ctrls1.perBankWrBursts::27            9825                       # Per bank write bursts
system.mem_ctrls1.perBankWrBursts::28            9821                       # Per bank write bursts
system.mem_ctrls1.perBankWrBursts::29           10171                       # Per bank write bursts
system.mem_ctrls1.perBankWrBursts::30            9623                       # Per bank write bursts
system.mem_ctrls1.perBankWrBursts::31            9994                       # Per bank write bursts
system.mem_ctrls1.numRdRetry                        0                       # Number of times read queue was full causing retry
system.mem_ctrls1.numWrRetry                        0                       # Number of times write queue was full causing retry
system.mem_ctrls1.totGap                  99999951500                       # Total gap between requests
system.mem_ctrls1.readPktSize::0                    0                       # Read request sizes (log2)
system.mem_ctrls1.readPktSize::1                    0                       # Read request sizes (log2)
system.mem_ctrls1.readPktSize::2                    0                       # Read request sizes (log2)
system.mem_ctrls1.readPktSize::3                    0                       # Read request sizes (log2)
system.mem_ctrls1.readPktSize::4                    0                       # Read request sizes (log2)
system.mem_ctrls1.readPktSize::5                    0                       # Read request sizes (log2)
system.mem_ctrls1.readPktSize::6               356316                       # Read request sizes (log2)
system.mem_ctrls1.writePktSize::0                   0                       # Write request sizes (log2)
system.mem_ctrls1.writePktSize::1                   0                       # Write request sizes (log2)
system.mem_ctrls1.writePktSize::2                   0                       # Write request sizes (log2)
system.mem_ctrls1.writePktSize::3                   0                       # Write request sizes (log2)
system.mem_ctrls1.writePktSize::4                   0                       # Write request sizes (log2)
system.mem_ctrls1.writePktSize::5                   0                       # Write request sizes (log2)
system.mem_ctrls1.writePktSize::6              320088                       # Write request sizes (log2)
system.mem_ctrls1.rdQLenPdf::0                 278288                       # What read queue length does an incoming req see
system.mem_ctrls1.rdQLenPdf::1                  32928                       # What read queue length does an incoming req see
system.mem_ctrls1.rdQLenPdf::2                  19804                       # What read queue length does an incoming req see
system.mem_ctrls1.rdQLenPdf::3                  16635                       # What read queue length does an incoming req see
system.mem_ctrls1.rdQLenPdf::4                   8225                       # What read queue length does an incoming req see
system.mem_ctrls1.rdQLenPdf::5                    184                       # What read queue length does an incoming req see
system.mem_ctrls1.rdQLenPdf::6                    121                       # What read queue length does an incoming req see
system.mem_ctrls1.rdQLenPdf::7                     74                       # What read queue length does an incoming req see
system.mem_ctrls1.rdQLenPdf::8                     36                       # What read queue length does an incoming req see
system.mem_ctrls1.rdQLenPdf::9                      5                       # What read queue length does an incoming req see
system.mem_ctrls1.rdQLenPdf::10                     2                       # What read queue length does an incoming req see
system.mem_ctrls1.rdQLenPdf::11                     1                       # What read queue length does an incoming req see
system.mem_ctrls1.rdQLenPdf::12                     1                       # What read queue length does an incoming req see
system.mem_ctrls1.rdQLenPdf::13                     0                       # What read queue length does an incoming req see
system.mem_ctrls1.rdQLenPdf::14                     0                       # What read queue length does an incoming req see
system.mem_ctrls1.rdQLenPdf::15                     0                       # What read queue length does an incoming req see
system.mem_ctrls1.rdQLenPdf::16                     0                       # What read queue length does an incoming req see
system.mem_ctrls1.rdQLenPdf::17                     0                       # What read queue length does an incoming req see
system.mem_ctrls1.rdQLenPdf::18                     0                       # What read queue length does an incoming req see
system.mem_ctrls1.rdQLenPdf::19                     0                       # What read queue length does an incoming req see
system.mem_ctrls1.rdQLenPdf::20                     0                       # What read queue length does an incoming req see
system.mem_ctrls1.rdQLenPdf::21                     0                       # What read queue length does an incoming req see
system.mem_ctrls1.rdQLenPdf::22                     0                       # What read queue length does an incoming req see
system.mem_ctrls1.rdQLenPdf::23                     0                       # What read queue length does an incoming req see
system.mem_ctrls1.rdQLenPdf::24                     0                       # What read queue length does an incoming req see
system.mem_ctrls1.rdQLenPdf::25                     0                       # What read queue length does an incoming req see
system.mem_ctrls1.rdQLenPdf::26                     0                       # What read queue length does an incoming req see
system.mem_ctrls1.rdQLenPdf::27                     0                       # What read queue length does an incoming req see
system.mem_ctrls1.rdQLenPdf::28                     0                       # What read queue length does an incoming req see
system.mem_ctrls1.rdQLenPdf::29                     0                       # What read queue length does an incoming req see
system.mem_ctrls1.rdQLenPdf::30                     0                       # What read queue length does an incoming req see
system.mem_ctrls1.rdQLenPdf::31                     0                       # What read queue length does an incoming req see
system.mem_ctrls1.rdQLenPdf::32                     0                       # What read queue length does an incoming req see
system.mem_ctrls1.rdQLenPdf::33                     0                       # What read queue length does an incoming req see
system.mem_ctrls1.rdQLenPdf::34                     0                       # What read queue length does an incoming req see
system.mem_ctrls1.rdQLenPdf::35                     0                       # What read queue length does an incoming req see
system.mem_ctrls1.rdQLenPdf::36                     0                       # What read queue length does an incoming req see
system.mem_ctrls1.rdQLenPdf::37                     0                       # What read queue length does an incoming req see
system.mem_ctrls1.rdQLenPdf::38                     0                       # What read queue length does an incoming req see
system.mem_ctrls1.rdQLenPdf::39                     0                       # What read queue length does an incoming req see
system.mem_ctrls1.rdQLenPdf::40                     0                       # What read queue length does an incoming req see
system.mem_ctrls1.rdQLenPdf::41                     0                       # What read queue length does an incoming req see
system.mem_ctrls1.rdQLenPdf::42                     0                       # What read queue length does an incoming req see
system.mem_ctrls1.rdQLenPdf::43                     0                       # What read queue length does an incoming req see
system.mem_ctrls1.rdQLenPdf::44                     0                       # What read queue length does an incoming req see
system.mem_ctrls1.rdQLenPdf::45                     0                       # What read queue length does an incoming req see
system.mem_ctrls1.rdQLenPdf::46                     0                       # What read queue length does an incoming req see
system.mem_ctrls1.rdQLenPdf::47                     0                       # What read queue length does an incoming req see
system.mem_ctrls1.rdQLenPdf::48                     0                       # What read queue length does an incoming req see
system.mem_ctrls1.rdQLenPdf::49                     0                       # What read queue length does an incoming req see
system.mem_ctrls1.rdQLenPdf::50                     0                       # What read queue length does an incoming req see
system.mem_ctrls1.rdQLenPdf::51                     0                       # What read queue length does an incoming req see
system.mem_ctrls1.rdQLenPdf::52                     0                       # What read queue length does an incoming req see
system.mem_ctrls1.rdQLenPdf::53                     0                       # What read queue length does an incoming req see
system.mem_ctrls1.rdQLenPdf::54                     0                       # What read queue length does an incoming req see
system.mem_ctrls1.rdQLenPdf::55                     0                       # What read queue length does an incoming req see
system.mem_ctrls1.rdQLenPdf::56                     0                       # What read queue length does an incoming req see
system.mem_ctrls1.rdQLenPdf::57                     0                       # What read queue length does an incoming req see
system.mem_ctrls1.rdQLenPdf::58                     0                       # What read queue length does an incoming req see
system.mem_ctrls1.rdQLenPdf::59                     0                       # What read queue length does an incoming req see
system.mem_ctrls1.rdQLenPdf::60                     0                       # What read queue length does an incoming req see
system.mem_ctrls1.rdQLenPdf::61                     0                       # What read queue length does an incoming req see
system.mem_ctrls1.rdQLenPdf::62                     0                       # What read queue length does an incoming req see
system.mem_ctrls1.rdQLenPdf::63                     0                       # What read queue length does an incoming req see
system.mem_ctrls1.wrQLenPdf::0                      1                       # What write queue length does an incoming req see
system.mem_ctrls1.wrQLenPdf::1                      1                       # What write queue length does an incoming req see
system.mem_ctrls1.wrQLenPdf::2                      1                       # What write queue length does an incoming req see
system.mem_ctrls1.wrQLenPdf::3                      1                       # What write queue length does an incoming req see
system.mem_ctrls1.wrQLenPdf::4                      1                       # What write queue length does an incoming req see
system.mem_ctrls1.wrQLenPdf::5                      1                       # What write queue length does an incoming req see
system.mem_ctrls1.wrQLenPdf::6                      1                       # What write queue length does an incoming req see
system.mem_ctrls1.wrQLenPdf::7                      1                       # What write queue length does an incoming req see
system.mem_ctrls1.wrQLenPdf::8                      1                       # What write queue length does an incoming req see
system.mem_ctrls1.wrQLenPdf::9                      1                       # What write queue length does an incoming req see
system.mem_ctrls1.wrQLenPdf::10                     1                       # What write queue length does an incoming req see
system.mem_ctrls1.wrQLenPdf::11                     1                       # What write queue length does an incoming req see
system.mem_ctrls1.wrQLenPdf::12                     1                       # What write queue length does an incoming req see
system.mem_ctrls1.wrQLenPdf::13                     1                       # What write queue length does an incoming req see
system.mem_ctrls1.wrQLenPdf::14                     1                       # What write queue length does an incoming req see
system.mem_ctrls1.wrQLenPdf::15                     1                       # What write queue length does an incoming req see
system.mem_ctrls1.wrQLenPdf::16                     1                       # What write queue length does an incoming req see
system.mem_ctrls1.wrQLenPdf::17                     1                       # What write queue length does an incoming req see
[...]
system.l2.avg_blocked_cycles::no_targets          nan                       # average number of cycles each access was blocked
system.l2.unused_prefetches                     26999                       # number of HardPF blocks evicted w/o reference
system.l2.writebacks::.writebacks              640132                       # number of writebacks
system.l2.writebacks::total                    640132                       # number of writebacks
system.l2.ReadExReq_mshr_hits::.cpu.data         5200                       # number of ReadExReq MSHR hits
system.l2.ReadExReq_mshr_hits::total             5200                       # number of ReadExReq MSHR hits
system.l2.ReadSharedReq_mshr_hits::.cpu.data           10                       # number of ReadSharedReq MSHR hits
system.l2.ReadSharedReq_mshr_hits::total           10                       # number of ReadSharedReq MSHR hits
system.l2.demand_mshr_hits::.cpu.data            5210                       # number of demand (read+write) MSHR hits
system.l2.demand_mshr_hits::total                5210                       # number of demand (read+write) MSHR hits
system.l2.overall_mshr_hits::.cpu.data           5210                       # number of overall MSHR hits
system.l2.overall_mshr_hits::total               5210                       # number of overall MSHR hits
system.l2.HardPFReq_mshr_misses::.l2.prefetcher       704655                       # number of HardPFReq MSHR misses
system.l2.HardPFReq_mshr_misses::total         704655                       # number of HardPFReq MSHR misses
system.l2.UpgradeReq_mshr_misses::.cpu.data         1747                       # number of UpgradeReq MSHR misses
system.l2.UpgradeReq_mshr_misses::total          1747                       # number of UpgradeReq MSHR misses
system.l2.ReadExReq_mshr_misses::.cpu.data        49099                       # number of ReadExReq MSHR misses
system.l2.ReadExReq_mshr_misses::total          49099                       # number of ReadExReq MSHR misses
system.l2.ReadCleanReq_mshr_misses::.cpu.inst         6632                       # number of ReadCleanReq MSHR misses
system.l2.ReadCleanReq_mshr_misses::total         6632                       # number of ReadCleanReq MSHR misses
system.l2.ReadSharedReq_mshr_misses::.cpu.data        42028                       # number of ReadSharedReq MSHR misses
system.l2.ReadSharedReq_mshr_misses::total        42028                       # number of ReadSharedReq MSHR misses
system.l2.demand_mshr_misses::.cpu.inst          6632                       # number of demand (read+write) MSHR misses
system.l2.demand_mshr_misses::.cpu.data         91127                       # number of demand (read+write) MSHR misses
system.l2.demand_mshr_misses::total             97759                       # number of demand (read+write) MSHR misses
system.l2.overall_mshr_misses::.cpu.inst         6632                       # number of overall MSHR misses
system.l2.overall_mshr_misses::.cpu.data        91127                       # number of overall MSHR misses
system.l2.overall_mshr_misses::.l2.prefetcher       704655                       # number of overall MSHR misses
system.l2.overall_mshr_misses::total           802414                       # number of overall MSHR misses
system.l2.HardPFReq_mshr_miss_latency::.l2.prefetcher  46904824689                       # number of HardPFReq MSHR miss cycles
system.l2.HardPFReq_mshr_miss_latency::total  46904824689                       # number of HardPFReq MSHR miss cycles
system.l2.UpgradeReq_mshr_miss_latency::.cpu.data     53092000                       # number of UpgradeReq MSHR miss cycles
system.l2.UpgradeReq_mshr_miss_latency::total     53092000                       # number of UpgradeReq MSHR miss cycles
system.l2.ReadExReq_mshr_miss_latency::.cpu.data   6725849500                       # number of ReadExReq MSHR miss cycles
system.l2.ReadExReq_mshr_miss_latency::total   6725849500                       # number of ReadExReq MSHR miss cycles
system.l2.ReadCleanReq_mshr_miss_latency::.cpu.inst    683205000                       # number of ReadCleanReq MSHR miss cycles
system.l2.ReadCleanReq_mshr_miss_latency::total    683205000                       # number of ReadCleanReq MSHR miss cycles
system.l2.ReadSharedReq_mshr_miss_latency::.cpu.data   3725154500                       # number of ReadSharedReq MSHR miss cycles
system.l2.ReadSharedReq_mshr_miss_latency::total   3725154500                       # number of ReadSharedReq MSHR miss cycles
system.l2.demand_mshr_miss_latency::.cpu.inst    683205000                       # number of demand (read+write) MSHR miss cycles
system.l2.demand_mshr_miss_latency::.cpu.data  10451004000                       # number of demand (read+write) MSHR miss cycles
system.l2.demand_mshr_miss_latency::total  11134209000                       # number of demand (read+write) MSHR miss cycles
system.l2.overall_mshr_miss_latency::.cpu.inst    683205000                       # number of overall MSHR miss cycles
system.l2.overall_mshr_miss_latency::.cpu.data  10451004000                       # number of overall MSHR miss cycles
system.l2.overall_mshr_miss_latency::.l2.prefetcher  46904824689                       # number of overall MSHR miss cycles
system.l2.overall_mshr_miss_latency::total  58039033689                       # number of overall MSHR miss cycles
system.l2.HardPFReq_mshr_miss_rate::.l2.prefetcher          inf                       # mshr miss rate for HardPFReq accesses
system.l2.HardPFReq_mshr_miss_rate::total          inf                       # mshr miss rate for HardPFReq accesses
system.l2.UpgradeReq_mshr_miss_rate::.cpu.data     0.994875                       # mshr miss rate for UpgradeReq accesses
system.l2.UpgradeReq_mshr_miss_rate::total     0.994875                       # mshr miss rate for UpgradeReq accesses
system.l2.ReadExReq_mshr_miss_rate::.cpu.data     0.067520                       # mshr miss rate for ReadExReq accesses
system.l2.ReadExReq_mshr_miss_rate::total     0.067520                       # mshr miss rate for ReadExReq accesses
system.l2.ReadCleanReq_mshr_miss_rate::.cpu.inst     0.012890                       # mshr miss rate for ReadCleanReq accesses
system.l2.ReadCleanReq_mshr_miss_rate::total     0.012890                       # mshr miss rate for ReadCleanReq accesses
system.l2.ReadSharedReq_mshr_miss_rate::.cpu.data     0.171040                       # mshr miss rate for ReadSharedReq accesses
system.l2.ReadSharedReq_mshr_miss_rate::total     0.171040                       # mshr miss rate for ReadSharedReq accesses
system.l2.demand_mshr_miss_rate::.cpu.inst     0.012890                       # mshr miss rate for demand accesses
system.l2.demand_mshr_miss_rate::.cpu.data     0.093666                       # mshr miss rate for demand accesses
system.l2.demand_mshr_miss_rate::total       0.065724                       # mshr miss rate for demand accesses
system.l2.overall_mshr_miss_rate::.cpu.inst     0.012890                       # mshr miss rate for overall accesses
system.l2.overall_mshr_miss_rate::.cpu.data     0.093666                       # mshr miss rate for overall accesses
system.l2.overall_mshr_miss_rate::.l2.prefetcher          inf                       # mshr miss rate for overall accesses
system.l2.overall_mshr_miss_rate::total      0.539469                       # mshr miss rate for overall accesses
system.l2.HardPFReq_avg_mshr_miss_latency::.l2.prefetcher 66564.240215                       # average HardPFReq mshr miss latency
system.l2.HardPFReq_avg_mshr_miss_latency::total 66564.240215                       # average HardPFReq mshr miss latency
system.l2.UpgradeReq_avg_mshr_miss_latency::.cpu.data 30390.383515                       # average UpgradeReq mshr miss latency
system.l2.UpgradeReq_avg_mshr_miss_latency::total 30390.383515                       # average UpgradeReq mshr miss latency
system.l2.ReadExReq_avg_mshr_miss_latency::.cpu.data 136985.468136                       # average ReadExReq mshr miss latency
system.l2.ReadExReq_avg_mshr_miss_latency::total 136985.468136                       # average ReadExReq mshr miss latency
system.l2.ReadCleanReq_avg_mshr_miss_latency::.cpu.inst 103016.435464                       # average ReadCleanReq mshr miss latency
system.l2.ReadCleanReq_avg_mshr_miss_latency::total 103016.435464                       # average ReadCleanReq mshr miss latency
system.l2.ReadSharedReq_avg_mshr_miss_latency::.cpu.data 88635.064719                       # average ReadSharedReq mshr miss latency
system.l2.ReadSharedReq_avg_mshr_miss_latency::total 88635.064719                       # average ReadSharedReq mshr miss latency
system.l2.demand_avg_mshr_miss_latency::.cpu.inst 103016.435464                       # average overall mshr miss latency
system.l2.demand_avg_mshr_miss_latency::.cpu.data 114686.141319                       # average overall mshr miss latency
system.l2.demand_avg_mshr_miss_latency::total 113894.464960                       # average overall mshr miss latency
system.l2.overall_avg_mshr_miss_latency::.cpu.inst 103016.435464                       # average overall mshr miss latency
system.l2.overall_avg_mshr_miss_latency::.cpu.data 114686.141319                       # average overall mshr miss latency
system.l2.overall_avg_mshr_miss_latency::.l2.prefetcher 66564.240215                       # average overall mshr miss latency
system.l2.overall_avg_mshr_miss_latency::total 72330.534723                       # average overall mshr miss latency
system.l2.replacements                         679290                       # number of replacements
system.membus.snoop_filter.tot_requests       1394169                       # Total number of requests made to the snoop filter.
system.membus.snoop_filter.hit_single_requests       681632                       # Number of requests hitting in the snoop filter with a single holder of the requested data.
system.membus.snoop_filter.hit_multi_requests            0                       # Number of requests hitting in the snoop filter with multiple (>1) holders of the requested data.
system.membus.snoop_filter.tot_snoops               0                       # Total number of snoops made to the snoop filter.
system.membus.snoop_filter.hit_single_snoops            0                       # Number of snoops hitting in the snoop filter with a single holder of the requested data.
system.membus.snoop_filter.hit_multi_snoops            0                       # Number of snoops hitting in the snoop filter with multiple (>1) holders of the requested data.
system.membus.pwrStateResidencyTicks::UNDEFINED 100000000000                       # Cumulative time (in ticks) in various power states
system.membus.trans_dist::ReadResp             664032                       # Transaction distribution
system.membus.trans_dist::WritebackDirty       640132                       # Transaction distribution
system.membus.trans_dist::CleanEvict            39158                       # Transaction distribution
system.membus.trans_dist::UpgradeReq             1865                       # Transaction distribution
system.membus.trans_dist::ReadExReq             48982                       # Transaction distribution
system.membus.trans_dist::ReadExResp            48982                       # Transaction distribution
system.membus.trans_dist::ReadCleanReq         664032                       # Transaction distribution
system.membus.pkt_count_system.l2.mem_side::system.mem_ctrls0.port      1053947                       # Packet count per connected master and slave (bytes)
system.membus.pkt_count_system.l2.mem_side::system.mem_ctrls1.port      1053236                       # Packet count per connected master and slave (bytes)
system.membus.pkt_count_system.l2.mem_side::total      2107183                       # Packet count per connected master and slave (bytes)
system.membus.pkt_count::total                2107183                       # Packet count per connected master and slave (bytes)
system.membus.pkt_size_system.l2.mem_side::system.mem_ctrls0.port     43311488                       # Cumulative packet size per connected master and slave (bytes)
system.membus.pkt_size_system.l2.mem_side::system.mem_ctrls1.port     43289856                       # Cumulative packet size per connected master and slave (bytes)
system.membus.pkt_size_system.l2.mem_side::total     86601344                       # Cumulative packet size per connected master and slave (bytes)
system.membus.pkt_size::total                86601344                       # Cumulative packet size per connected master and slave (bytes)
system.membus.snoops                                0                       # Total snoops (count)
system.membus.snoopTraffic                          0                       # Total snoop traffic (bytes)
system.membus.snoop_fanout::samples            714879                       # Request fanout histogram
system.membus.snoop_fanout::mean                    0                       # Request fanout histogram
system.membus.snoop_fanout::stdev                   0                       # Request fanout histogram
system.membus.snoop_fanout::underflows              0      0.00%      0.00% # Request fanout histogram
system.membus.snoop_fanout::0                  714879    100.00%    100.00% # Request fanout histogram
system.membus.snoop_fanout::1                       0      0.00%    100.00% # Request fanout histogram
system.membus.snoop_fanout::overflows               0      0.00%    100.00% # Request fanout histogram
system.membus.snoop_fanout::min_value               0                       # Request fanout histogram
system.membus.snoop_fanout::max_value               0                       # Request fanout histogram
system.membus.snoop_fanout::total              714879                       # Request fanout histogram
system.membus.reqLayer2.occupancy          2218455158                       # Layer occupancy (ticks)
system.membus.reqLayer2.utilization               2.2                       # Layer utilization (%)
system.membus.reqLayer3.occupancy          2218283077                       # Layer occupancy (ticks)
system.membus.reqLayer3.utilization               2.2                       # Layer utilization (%)
system.membus.respLayer1.occupancy         3833399667                       # Layer occupancy (ticks)
system.membus.respLayer1.utilization              3.8                       # Layer utilization (%)
system.tol2bus.snoop_filter.tot_requests      2977589                       # Total number of requests made to the snoop filter.
system.tol2bus.snoop_filter.hit_single_requests      1486953                       # Number of requests hitting in the snoop filter with a single holder of the requested data.
system.tol2bus.snoop_filter.hit_multi_requests         5068                       # Number of requests hitting in the snoop filter with multiple (>1) holders of the requested data.
system.tol2bus.snoop_filter.tot_snoops          90610                       # Total number of snoops made to the snoop filter.
system.tol2bus.snoop_filter.hit_single_snoops        90556                       # Number of snoops hitting in the snoop filter with a single holder of the requested data.
system.tol2bus.snoop_filter.hit_multi_snoops           54                       # Number of snoops hitting in the snoop filter with multiple (>1) holders of the requested data.
system.tol2bus.pwrStateResidencyTicks::UNDEFINED 100000000000                       # Cumulative time (in ticks) in various power states
system.tol2bus.trans_dist::ReadResp            762172                       # Transaction distribution
system.tol2bus.trans_dist::WritebackDirty      1583652                       # Transaction distribution
system.tol2bus.trans_dist::WritebackClean       542966                       # Transaction distribution
system.tol2bus.trans_dist::CleanEvict           39158                       # Transaction distribution
system.tol2bus.trans_dist::HardPFReq           814471                       # Transaction distribution
system.tol2bus.trans_dist::UpgradeReq            1756                       # Transaction distribution
system.tol2bus.trans_dist::UpgradeResp           1756                       # Transaction distribution
system.tol2bus.trans_dist::ReadExReq           727175                       # Transaction distribution
system.tol2bus.trans_dist::ReadExResp          727175                       # Transaction distribution
system.tol2bus.trans_dist::ReadCleanReq        516451                       # Transaction distribution
system.tol2bus.trans_dist::ReadSharedReq       245721                       # Transaction distribution
system.tol2bus.pkt_count_system.cpu.icache.mem_side::system.l2.cpu_side      1545584                       # Packet count per connected master and slave (bytes)
system.tol2bus.pkt_count_system.cpu.dcache.mem_side::system.l2.cpu_side      2921176                       # Packet count per connected master and slave (bytes)
system.tol2bus.pkt_count::total               4466760                       # Packet count per connected master and slave (bytes)
system.tol2bus.pkt_size_system.cpu.icache.mem_side::system.l2.cpu_side     65864512                       # Cumulative packet size per connected master and slave (bytes)
system.tol2bus.pkt_size_system.cpu.dcache.mem_side::system.l2.cpu_side    124465152                       # Cumulative packet size per connected master and slave (bytes)
system.tol2bus.pkt_size::total              190329664                       # Cumulative packet size per connected master and slave (bytes)
system.tol2bus.snoops                         1495693                       # Total snoops (count)
system.tol2bus.snoopTraffic                  41092096                       # Total snoop traffic (bytes)
system.tol2bus.snoop_fanout::samples          2984864                       # Request fanout histogram
system.tol2bus.snoop_fanout::mean            0.032073                       # Request fanout histogram
system.tol2bus.snoop_fanout::stdev           0.176296                       # Request fanout histogram
system.tol2bus.snoop_fanout::underflows             0      0.00%      0.00% # Request fanout histogram
system.tol2bus.snoop_fanout::0                2889185     96.79%     96.79% # Request fanout histogram
system.tol2bus.snoop_fanout::1                  95625      3.20%    100.00% # Request fanout histogram
system.tol2bus.snoop_fanout::2                     54      0.00%    100.00% # Request fanout histogram
system.tol2bus.snoop_fanout::3                      0      0.00%    100.00% # Request fanout histogram
system.tol2bus.snoop_fanout::4                      0      0.00%    100.00% # Request fanout histogram
system.tol2bus.snoop_fanout::overflows              0      0.00%    100.00% # Request fanout histogram
system.tol2bus.snoop_fanout::min_value              0                       # Request fanout histogram
system.tol2bus.snoop_fanout::max_value              2                       # Request fanout histogram
system.tol2bus.snoop_fanout::total            2984864                       # Request fanout histogram
system.tol2bus.reqLayer0.occupancy         2975282496                       # Layer occupancy (ticks)
system.tol2bus.reqLayer0.utilization              3.0                       # Layer utilization (%)
system.tol2bus.respLayer0.occupancy         774733386                       # Layer occupancy (ticks)
system.tol2bus.respLayer0.utilization             0.8                       # Layer utilization (%)
system.tol2bus.respLayer1.occupancy        1460347748                       # Layer occupancy (ticks)
system.tol2bus.respLayer1.utilization             1.5                       # Layer utilization (%)

---------- End Simulation Statistics   ----------
