
---------- Begin Simulation Statistics ----------
sim_seconds                                  0.100000                       # Number of seconds simulated
sim_ticks                                100000000000                       # Number of ticks simulated
final_tick                               100000000000                       # Number of ticks from beginning of simulation (restored from checkpoints and never reset)
sim_freq                                 1000000000000                       # Frequency of simulated ticks
host_inst_rate                                  12052                       # Simulator instruction rate (inst/s)
host_op_rate                                    23991                       # Simulator op (including micro ops) rate (op/s)
host_tick_rate                               69328843                       # Simulator tick rate (ticks/s)
host_mem_usage                               67400128                       # Number of bytes of host memory used
host_seconds                                  1442.40                       # Real time elapsed on the host
sim_insts                                    17384462                       # Number of instructions simulated
sim_ops                                      34604388                       # Number of ops (including micro ops) simulated
system.voltage_domain.voltage                       1                       # Voltage in Volts
system.clk_domain.clock                          1000                       # Clock period in ticks
system.mem_ctrls0.pwrStateResidencyTicks::UNDEFINED 100000000000                       # Cumulative time (in ticks) in various power states
system.mem_ctrls0.bytes_read::.cpu.inst         23680                       # Number of bytes read from this memory
system.mem_ctrls0.bytes_read::.cpu.data       1179712                       # Number of bytes read from this memory
system.mem_ctrls0.bytes_read::.l2.prefetcher     73986752                       # Number of bytes read from this memory
system.mem_ctrls0.bytes_read::total          75190144                       # Number of bytes read from this memory
system.mem_ctrls0.bytes_inst_read::.cpu.inst        23680                       # Number of instructions bytes read from this memory
system.mem_ctrls0.bytes_inst_read::total        23680                       # Number of instructions bytes read from this memory
system.mem_ctrls0.bytes_written::.writebacks     74112832                       # Number of bytes written to this memory
system.mem_ctrls0.bytes_written::total       74112832                       # Number of bytes written to this memory
system.mem_ctrls0.num_reads::.cpu.inst            370                       # Number of read requests responded to by this memory
system.mem_ctrls0.num_reads::.cpu.data          18433                       # Number of read requests responded to by this memory
system.mem_ctrls0.num_reads::.l2.prefetcher      1156043                       # Number of read requests responded to by this memory
system.mem_ctrls0.num_reads::total            1174846                       # Number of read requests responded to by this memory
system.mem_ctrls0.num_writes::.writebacks      1158013                       # Number of write requests responded to by this memory
system.mem_ctrls0.num_writes::total           1158013                       # Number of write requests responded to by this memory
system.mem_ctrls0.bw_read::.cpu.inst           236800                       # Total read bandwidth from this memory (bytes/s)
system.mem_ctrls0.bw_read::.cpu.data         11797120                       # Total read bandwidth from this memory (bytes/s)
system.mem_ctrls0.bw_read::.l2.prefetcher    739867520                       # Total read bandwidth from this memory (bytes/s)
system.mem_ctrls0.bw_read::total            751901440                       # Total read bandwidth from this memory (bytes/s)
system.mem_ctrls0.bw_inst_read::.cpu.inst       236800                       # Instruction read bandwidth from this memory (bytes/s)
system.mem_ctrls0.bw_inst_read::total          236800                       # Instruction read bandwidth from this memory (bytes/s)
system.mem_ctrls0.bw_write::.writebacks     741128320                       # Write bandwidth from this memory (bytes/s)
system.mem_ctrls0.bw_write::total           741128320                       # Write bandwidth from this memory (bytes/s)
system.mem_ctrls0.bw_total::.writebacks     741128320                       # Total bandwidth to/from this memory (bytes/s)
system.mem_ctrls0.bw_total::.cpu.inst          236800                       # Total bandwidth to/from this memory (bytes/s)
system.mem_ctrls0.bw_total::.cpu.data        11797120                       # Total bandwidth to/from this memory (bytes/s)
system.mem_ctrls0.bw_total::.l2.prefetcher    739867520                       # Total bandwidth to/from this memory (bytes/s)
system.mem_ctrls0.bw_total::total          1493029760                       # Total bandwidth to/from this memory (bytes/s)
system.mem_ctrls0.avgPriority_.writebacks::samples   1158013.00                       # Average QoS priority value for accepted requests
system.mem_ctrls0.avgPriority_.cpu.inst::samples       370.00                       # Average QoS priority value for accepted requests
system.mem_ctrls0.avgPriority_.cpu.data::samples     18433.00                       # Average QoS priority value for accepted requests
system.mem_ctrls0.avgPriority_.l2.prefetcher::samples   1156043.00                       # Average QoS priority value for accepted requests
system.mem_ctrls0.priorityMinLatency     0.000000017492                       # per QoS priority minimum request to response latency (s)
system.mem_ctrls0.priorityMaxLatency     0.000298814652                       # per QoS priority maximum request to response latency (s)
system.mem_ctrls0.numReadWriteTurnArounds        67636                       # Number of turnarounds from READ to WRITE
system.mem_ctrls0.numWriteReadTurnArounds        67637                       # Number of turnarounds from WRITE to READ
system.mem_ctrls0.numStayReadState            3370912                       # Number of times bus staying in READ state
system.mem_ctrls0.numStayWriteState           1093699                       # Number of times bus staying in WRITE state
system.mem_ctrls0.readReqs                    1174846                       # Number of read requests accepted
system.mem_ctrls0.writeReqs                   1158013                       # Number of write requests accepted
system.mem_ctrls0.readBursts                  1174846                       # Number of DRAM read bursts, including those serviced by the write queue
system.mem_ctrls0.writeBursts                 1158013                       # Number of DRAM write bursts, including those merged in the write queue
system.mem_ctrls0.bytesReadDRAM              75190144                       # Total number of bytes read from DRAM
system.mem_ctrls0.bytesReadWrQ                      0                       # Total number of bytes read from write queue
system.mem_ctrls0.bytesWritten               74109568                       # Total number of bytes written to DRAM
system.mem_ctrls0.bytesReadSys               75190144                       # Total read bytes from the system interface side
system.mem_ctrls0.bytesWrittenSys            74112832                       # Total written bytes from the system interface side
system.mem_ctrls0.servicedByWrQ                     0                       # Number of DRAM read bursts serviced by the write queue
system.mem_ctrls0.mergedWrBursts                    0                       # Number of DRAM write bursts merged with an existing one
system.mem_ctrls0.neitherReadNorWriteReqs            0                       # Number of requests that are neither read nor write
system.mem_ctrls0.perBankRdBursts::0            36676                       # Per bank write bursts
system.mem_ctrls0.perBankRdBursts::1            36652                       # Per bank write bursts
system.mem_ctrls0.perBankRdBursts::2            36620                       # Per bank write bursts
system.mem_ctrls0.perBankRdBursts::3            36621                       # Per bank write bursts
system.mem_ctrls0.perBankRdBursts::4            36615                       # Per bank write bursts
system.mem_ctrls0.perBankRdBursts::5            36642                       # Per bank write bursts
system.mem_ctrls0.perBankRdBursts::6            36639                       # Per bank write bursts
system.mem_ctrls0.perBankRdBursts::7            36690                       # Per bank write bursts
system.mem_ctrls0.perBankRdBursts::8            36737                       # Per bank write bursts
system.mem_ctrls0.perBankRdBursts::9            36743                       # Per bank write bursts
system.mem_ctrls0.perBankRdBursts::10           36760                       # Per bank write bursts
system.mem_ctrls0.perBankRdBursts::11           36756                       # Per bank write bursts
system.mem_ctrls0.perBankRdBursts::12           36799                       # Per bank write bursts
system.mem_ctrls0.perBankRdBursts::13           36750                       # Per bank write bursts
system.mem_ctrls0.perBankRdBursts::14           36751                       # Per bank write bursts
system.mem_ctrls0.perBankRdBursts::15           36740                       # Per bank write bursts
system.mem_ctrls0.perBankRdBursts::16           36736                       # Per bank write bursts
system.mem_ctrls0.perBankRdBursts::17           36739                       # Per bank write bursts
system.mem_ctrls0.perBankRdBursts::18           36737                       # Per bank write bursts
system.mem_ctrls0.perBankRdBursts::19           36742                       # Per bank write bursts
system.mem_ctrls0.perBankRdBursts::20           36786                       # Per bank write bursts
system.mem_ctrls0.perBankRdBursts::21           36783                       # Per bank write bursts
system.mem_ctrls0.perBankRdBursts::22           36736                       # Per bank write bursts
system.mem_ctrls0.perBankRdBursts::23           36785                       # Per bank write bursts
system.mem_ctrls0.perBankRdBursts::24           36766                       # Per bank write bursts
system.mem_ctrls0.perBankRdBursts::25           36743                       # Per bank write bursts
system.mem_ctrls0.perBankRdBursts::26           36740                       # Per bank write bursts
system.mem_ctrls0.perBankRdBursts::27           36736                       # Per bank write bursts
system.mem_ctrls0.perBankRdBursts::28           36751                       # Per bank write bursts
system.mem_ctrls0.perBankRdBursts::29           36643                       # Per bank write bursts
system.mem_ctrls0.perBankRdBursts::30           36624                       # Per bank write bursts
system.mem_ctrls0.perBankRdBursts::31           36608                       # Per bank write bursts
system.mem_ctrls0.perBankWrBursts::0            36096                       # Per bank write bursts
system.mem_ctrls0.perBankWrBursts::1            36099                       # Per bank write bursts
system.mem_ctrls0.perBankWrBursts::2            36096                       # Per bank write bursts
system.mem_ctrls0.perBankWrBursts::3            36096                       # Per bank write bursts
system.mem_ctrls0.perBankWrBursts::4            36097                       # Per bank write bursts
system.mem_ctrls0.perBankWrBursts::5            36096                       # Per bank write bursts
system.mem_ctrls0.perBankWrBursts::6            36096                       # Per bank write bursts
system.mem_ctrls0.perBankWrBursts::7            36167                       # Per bank write bursts
system.mem_ctrls0.perBankWrBursts::8            36224                       # Per bank write bursts
system.mem_ctrls0.perBankWrBursts::9            36224                       # Per bank write bursts
system.mem_ctrls0.perBankWrBursts::10           36224                       # Per bank write bursts
system.mem_ctrls0.perBankWrBursts::11           36224                       # Per bank write bursts
system.mem_ctrls0.perBankWrBursts::12           36224                       # Per bank write bursts
system.mem_ctrls0.perBankWrBursts::13           36224                       # Per bank write bursts
system.mem_ctrls0.perBankWrBursts::14           36224                       # Per bank write bursts
system.mem_ctrls0.perBankWrBursts::15           36224                       # Per bank write bursts
system.mem_ctrls0.perBankWrBursts::16           36224                       # Per bank write bursts
system.mem_ctrls0.perBankWrBursts::17           36224                       # Per bank write bursts
system.mem_ctrls0.perBankWrBursts::18           36224                       # Per bank write bursts
system.mem_ctrls0.perBankWrBursts::19           36228                       # Per bank write bursts
system.mem_ctrls0.perBankWrBursts::20           36270                       # Per bank write bursts
system.mem_ctrls0.perBankWrBursts::21           36235                       # Per bank write bursts
system.mem_ctrls0.perBankWrBursts::22           36224                       # Per bank write bursts
system.mem_ctrls0.perBankWrBursts::23           36230                       # Per bank write bursts
system.mem_ctrls0.perBankWrBursts::24           36239                       # Per bank write bursts
system.mem_ctrls0.perBankWrBursts::25           36224                       # Per bank write bursts
system.mem_ctrls0.perBankWrBursts::26           36224                       # Per bank write bursts
system.mem_ctrls0.perBankWrBursts::27           36224                       # Per bank write bursts
system.mem_ctrls0.perBankWrBursts::28           36230                       # Per bank write bursts
system.mem_ctrls0.perBankWrBursts::29           36121                       # Per bank write bursts
system.mem_ctrls0.perBankWrBursts::30           36110                       # Per bank write bursts
system.mem_ctrls0.perBankWrBursts::31           36096                       # Per bank write bursts
system.mem_ctrls0.numRdRetry                        0                       # Number of times read queue was full causing retry
system.mem_ctrls0.numWrRetry                        0                       # Number of times write queue was full causing retry
system.mem_ctrls0.totGap                  99999952000                       # Total gap between requests
system.mem_ctrls0.readPktSize::0                    0                       # Read request sizes (log2)
system.mem_ctrls0.readPktSize::1                    0                       # Read request sizes (log2)
system.mem_ctrls0.readPktSize::2                    0                       # Read request sizes (log2)
system.mem_ctrls0.readPktSize::3                    0                       # Read request sizes (log2)
system.mem_ctrls0.readPktSize::4                    0                       # Read request sizes (log2)
system.mem_ctrls0.readPktSize::5                    0                       # Read request sizes (log2)
system.mem_ctrls0.readPktSize::6              1174846                       # Read request sizes (log2)
system.mem_ctrls0.writePktSize::0                   0                       # Write request sizes (log2)
system.mem_ctrls0.writePktSize::1                   0                       # Write request sizes (log2)
system.mem_ctrls0.writePktSize::2                   0                       # Write request sizes (log2)
system.mem_ctrls0.writePktSize::3                   0                       # Write request sizes (log2)
system.mem_ctrls0.writePktSize::4                   0                       # Write request sizes (log2)
system.mem_ctrls0.writePktSize::5                   0                       # Write request sizes (log2)
system.mem_ctrls0.writePktSize::6             1158013                       # Write request sizes (log2)
system.mem_ctrls0.rdQLenPdf::0                 947368                       # What read queue length does an incoming req see
system.mem_ctrls0.rdQLenPdf::1                 107848                       # What read queue length does an incoming req see
system.mem_ctrls0.rdQLenPdf::2                  48034                       # What read queue length does an incoming req see
system.mem_ctrls0.rdQLenPdf::3                  47097                       # What read queue length does an incoming req see
system.mem_ctrls0.rdQLenPdf::4                  24498                       # What read queue length does an incoming req see
system.mem_ctrls0.rdQLenPdf::5                      1                       # What read queue length does an incoming req see
system.mem_ctrls0.rdQLenPdf::6                      0                       # What read queue length does an incoming req see
system.mem_ctrls0.rdQLenPdf::7                      0                       # What read queue length does an incoming req see
system.mem_ctrls0.rdQLenPdf::8                      0                       # What read queue length does an incoming req see
system.mem_ctrls0.rdQLenPdf::9                      0                       # What read queue length does an incoming req see
system.mem_ctrls0.rdQLenPdf::10                     0                       # What read queue length does an incoming req see
system.mem_ctrls0.rdQLenPdf::11                     0                       # What read queue length does an incoming req see
system.mem_ctrls0.rdQLenPdf::12                     0                       # What read queue length does an incoming req see
system.mem_ctrls0.rdQLenPdf::13                     0                       # What read queue length does an incoming req see
system.mem_ctrls0.rdQLenPdf::14                     0                       # What read queue length does an incoming req see
system.mem_ctrls0.rdQLenPdf::15                     0                       # What read queue length does an incoming req see
system.mem_ctrls0.rdQLenPdf::16                     0                       # What read queue length does an incoming req see
system.mem_ctrls0.rdQLenPdf::17                     0                       # What read queue length does an incoming req see
system.mem_ctrls0.rdQLenPdf::18                     0                       # What read queue length does an incoming req see
system.mem_ctrls0.rdQLenPdf::19                     0                       # What read queue length does an incoming req see
system.mem_ctrls0.rdQLenPdf::20                     0                       # What read queue length does an incoming req see
system.mem_ctrls0.rdQLenPdf::21                     0                       # What read queue length does an incoming req see
system.mem_ctrls0.rdQLenPdf::22                     0                       # What read queue length does an incoming req see
system.mem_ctrls0.rdQLenPdf::23                     0                       # What read queue length does an incoming req see
system.mem_ctrls0.rdQLenPdf::24                     0                       # What read queue length does an incoming req see
system.mem_ctrls0.rdQLenPdf::25                     0                       # What read queue length does an incoming req see
system.mem_ctrls0.rdQLenPdf::26                     0                       # What read queue length does an incoming req see
system.mem_ctrls0.rdQLenPdf::27                     0                       # What read queue length does an incoming req see
system.mem_ctrls0.rdQLenPdf::28                     0                       # What read queue length does an incoming req see
system.mem_ctrls0.rdQLenPdf::29                     0                       # What read queue length does an incoming req see
system.mem_ctrls0.rdQLenPdf::30                     0                       # What read queue length does an incoming req see
system.mem_ctrls0.rdQLenPdf::31                     0                       # What read queue length does an incoming req see
system.mem_ctrls0.rdQLenPdf::32                     0                       # What read queue length does an incoming req see
system.mem_ctrls0.rdQLenPdf::33                     0                       # What read queue length does an incoming req see
system.mem_ctrls0.rdQLenPdf::34                     0                       # What read queue length does an incoming req see
system.mem_ctrls0.rdQLenPdf::35                     0                       # What read queue length does an incoming req see
system.mem_ctrls0.rdQLenPdf::36                     0                       # What read queue length does an incoming req see
system.mem_ctrls0.rdQLenPdf::37                     0                       # What read queue length does an incoming req see
system.mem_ctrls0.rdQLenPdf::38                     0                       # What read queue length does an incoming req see
system.mem_ctrls0.rdQLenPdf::39                     0                       # What read queue length does an incoming req see
system.mem_ctrls0.rdQLenPdf::40                     0                       # What read queue length does an incoming req see
system.mem_ctrls0.rdQLenPdf::41                     0                       # What read queue length does an incoming req see
system.mem_ctrls0.rdQLenPdf::42                     0                       # What read queue length does an incoming req see
system.mem_ctrls0.rdQLenPdf::43                     0                       # What read queue length does an incoming req see
system.mem_ctrls0.rdQLenPdf::44                     0                       # What read queue length does an incoming req see
system.mem_ctrls0.rdQLenPdf::45                     0                       # What read queue length does an incoming req see
system.mem_ctrls0.rdQLenPdf::46                     0                       # What read queue length does an incoming req see
system.mem_ctrls0.rdQLenPdf::47                     0                       # What read queue length does an incoming req see
system.mem_ctrls0.rdQLenPdf::48                     0                       # What read queue length does an incoming req see
system.mem_ctrls0.rdQLenPdf::49                     0                       # What read queue length does an incoming req see
system.mem_ctrls0.rdQLenPdf::50                     0                       # What read queue length does an incoming req see
system.mem_ctrls0.rdQLenPdf::51                     0                       # What read queue length does an incoming req see
system.mem_ctrls0.rdQLenPdf::52                     0                       # What read queue length does an incoming req see
system.mem_ctrls0.rdQLenPdf::53                     0                       # What read queue length does an incoming req see
system.mem_ctrls0.rdQLenPdf::54                     0                       # What read queue length does an incoming req see
system.mem_ctrls0.rdQLenPdf::55                     0                       # What read queue length does an incoming req see
system.mem_ctrls0.rdQLenPdf::56                     0                       # What read queue length does an incoming req see
system.mem_ctrls0.rdQLenPdf::57                     0                       # What read queue length does an incoming req see
system.mem_ctrls0.rdQLenPdf::58                     0                       # What read queue length does an incoming req see
system.mem_ctrls0.rdQLenPdf::59                     0                       # What read queue length does an incoming req see
system.mem_ctrls0.rdQLenPdf::60                     0                       # What read queue length does an incoming req see
system.mem_ctrls0.rdQLenPdf::61                     0                       # What read queue length does an incoming req see
system.mem_ctrls0.rdQLenPdf::62                     0                       # What read queue length does an incoming req see
system.mem_ctrls0.rdQLenPdf::63                     0                       # What read queue length does an incoming req see
system.mem_ctrls0.wrQLenPdf::0                      1                       # What write queue length does an incoming req see
system.mem_ctrls0.wrQLenPdf::1                      1                       # What write queue length does an incoming req see
system.mem_ctrls0.wrQLenPdf::2                      1                       # What write queue length does an incoming req see
system.mem_ctrls0.wrQLenPdf::3                      1                       # What write queue length does an incoming req see
system.mem_ctrls0.wrQLenPdf::4                      1                       # What write queue length does an incoming req see
system.mem_ctrls0.wrQLenPdf::5                      1                       # What write queue length does an incoming req see
system.mem_ctrls0.wrQLenPdf::6                      1                       # What write queue length does an incoming req see
system.mem_ctrls0.wrQLenPdf::7                      1                       # What write queue length does an incoming req see
system.mem_ctrls0.wrQLenPdf::8                      1                       # What write queue length does an incoming req see
system.mem_ctrls0.wrQLenPdf::9                      1                       # What write queue length does an incoming req see
system.mem_ctrls0.wrQLenPdf::10                     1                       # What write queue length does an incoming req see
system.mem_ctrls0.wrQLenPdf::11                     1                       # What write queue length does an incoming req see
system.mem_ctrls0.wrQLenPdf::12                     1                       # What write queue length does an incoming req see
system.mem_ctrls0.wrQLenPdf::13                     1                       # What write queue length does an incoming req see
system.mem_ctrls0.wrQLenPdf::14                     1                       # What write queue length does an incoming req see
system.mem_ctrls0.wrQLenPdf::15                     1                       # What write queue length does an incoming req see
system.mem_ctrls0.wrQLenPdf::16                     1                       # What write queue length does an incoming req see
system.mem_ctrls0.wrQLenPdf::17                     1                       # What write queue length does an incoming req see
system.mem_ctrls0.wrQLenPdf::18                     1                       # What write queue length does an incoming req see
system.mem_ctrls0.wrQLenPdf::19                     1                       # What write queue length does an incoming req see
system.mem_ctrls0.wrQLenPdf::20                     1                       # What write queue length does an incoming req see
system.mem_ctrls0.wrQLenPdf::21                     1                       # What write queue length does an incoming req see
system.mem_ctrls0.wrQLenPdf::22                     1                       # What write queue length does an incoming req see
system.mem_ctrls0.wrQLenPdf::23                     1                       # What write queue length does an incoming req see
system.mem_ctrls0.wrQLenPdf::24                     1                       # What write queue length does an incoming req see
system.mem_ctrls0.wrQLenPdf::25                     1                       # What write queue length does an incoming req see
system.mem_ctrls0.wrQLenPdf::26                     1                       # What write queue length does an incoming req see
system.mem_ctrls0.wrQLenPdf::27                     1                       # What write queue length does an incoming req see
system.mem_ctrls0.wrQLenPdf::28                     1                       # What write queue length does an incoming req see
system.mem_ctrls0.wrQLenPdf::29                     1                       # What write queue length does an incoming req see
system.mem_ctrls0.wrQLenPdf::30                     1                       # What write queue length does an incoming req see
system.mem_ctrls0.wrQLenPdf::31                     1                       # What write queue length does an incoming req see
system.mem_ctrls0.wrQLenPdf::32                     1                       # What write queue length does an incoming req see
system.mem_ctrls0.wrQLenPdf::33                     1                       # What write queue length does an incoming req see
system.mem_ctrls0.wrQLenPdf::34                     1                       # What write queue length does an incoming req see
system.mem_ctrls0.wrQLenPdf::35                     1                       # What write queue length does an incoming req see
system.mem_ctrls0.wrQLenPdf::36                     1                       # What write queue length does an incoming req see
system.mem_ctrls0.wrQLenPdf::37                     1                       # What write queue length does an incoming req see
system.mem_ctrls0.wrQLenPdf::38                     1                       # What write queue length does an incoming req see
system.mem_ctrls0.wrQLenPdf::39                     1                       # What write queue length does an incoming req see
system.mem_ctrls0.wrQLenPdf::40                     1                       # What write queue length does an incoming req see
system.mem_ctrls0.wrQLenPdf::41                     1                       # What write queue length does an incoming req see
system.mem_ctrls0.wrQLenPdf::42                     1                       # What write queue length does an incoming req see
system.mem_ctrls0.wrQLenPdf::43                     1                       # What write queue length does an incoming req see
system.mem_ctrls0.wrQLenPdf::44                     1                       # What write queue length does an incoming req see
system.mem_ctrls0.wrQLenPdf::45                     1                       # What write queue length does an incoming req see
system.mem_ctrls0.wrQLenPdf::46                     1                       # What write queue length does an incoming req see
system.mem_ctrls0.wrQLenPdf::47                 25959                       # What write queue length does an incoming req see
system.mem_ctrls0.wrQLenPdf::48                 31677                       # What write queue length does an incoming req see
system.mem_ctrls0.wrQLenPdf::49                 62071                       # What write queue length does an incoming req see
system.mem_ctrls0.wrQLenPdf::50                 65586                       # What write queue length does an incoming req see
system.mem_ctrls0.wrQLenPdf::51                 67841                       # What write queue length does an incoming req see
system.mem_ctrls0.wrQLenPdf::52                 70397                       # What write queue length does an incoming req see
system.mem_ctrls0.wrQLenPdf::53                 70325                       # What write queue length does an incoming req see
system.mem_ctrls0.wrQLenPdf::54                 69335                       # What write queue length does an incoming req see
system.mem_ctrls0.wrQLenPdf::55                 69399                       # What write queue length does an incoming req see
system.mem_ctrls0.wrQLenPdf::56                 70089                       # What write queue length does an incoming req see
system.mem_ctrls0.wrQLenPdf::57                 68985                       # What write queue length does an incoming req see
system.mem_ctrls0.wrQLenPdf::58                 69672                       # What write queue length does an incoming req see
system.mem_ctrls0.wrQLenPdf::59                 69756                       # What write queue length does an incoming req see
system.mem_ctrls0.wrQLenPdf::60                 69042                       # What write queue length does an incoming req see
system.mem_ctrls0.wrQLenPdf::61                 70877                       # What write queue length does an incoming req see
system.mem_ctrls0.wrQLenPdf::62                 69407                       # What write queue length does an incoming req see
system.mem_ctrls0.wrQLenPdf::63                 69619                       # What write queue length does an incoming req see
system.mem_ctrls0.wrQLenPdf::64                 67927                       # What write queue length does an incoming req see
system.mem_ctrls0.wrQLenPdf::65                     1                       # What write queue length does an incoming req see
system.mem_ctrls0.wrQLenPdf::66                     1                       # What write queue length does an incoming req see
system.mem_ctrls0.wrQLenPdf::67                     0                       # What write queue length does an incoming req see
system.mem_ctrls0.wrQLenPdf::68                     0                       # What write queue length does an incoming req see
system.mem_ctrls0.wrQLenPdf::69                     0                       # What write queue length does an incoming req see
system.mem_ctrls0.wrQLenPdf::70                     0                       # What write queue length does an incoming req see
system.mem_ctrls0.wrQLenPdf::71                     0                       # What write queue length does an incoming req see
system.mem_ctrls0.wrQLenPdf::72                     0                       # What write queue length does an incoming req see
system.mem_ctrls0.wrQLenPdf::73                     0                       # What write queue length does an incoming req see
system.mem_ctrls0.wrQLenPdf::74                     0                       # What write queue length does an incoming req see
system.mem_ctrls0.wrQLenPdf::75                     0                       # What write queue length does an incoming req see
system.mem_ctrls0.wrQLenPdf::76                     0                       # What write queue length does an incoming req see
system.mem_ctrls0.wrQLenPdf::77                     0                       # What write queue length does an incoming req see
system.mem_ctrls0.wrQLenPdf::78                     0                       # What write queue length does an incoming req see
system.mem_ctrls0.wrQLenPdf::79                     0                       # What write queue length does an incoming req see
system.mem_ctrls0.wrQLenPdf::80                     0                       # What write queue length does an incoming req see
system.mem_ctrls0.wrQLenPdf::81                     0                       # What write queue length does an incoming req see
system.mem_ctrls0.wrQLenPdf::82                     0                       # What write queue length does an incoming req see
system.mem_ctrls0.wrQLenPdf::83                     0                       # What write queue length does an incoming req see
system.mem_ctrls0.wrQLenPdf::84                     0                       # What write queue length does an incoming req see
system.mem_ctrls0.wrQLenPdf::85                     0                       # What write queue length does an incoming req see
system.mem_ctrls0.wrQLenPdf::86                     0                       # What write queue length does an incoming req see
system.mem_ctrls0.wrQLenPdf::87                     0                       # What write queue length does an incoming req see
system.mem_ctrls0.wrQLenPdf::88                     0                       # What write queue length does an incoming req see
system.mem_ctrls0.wrQLenPdf::89                     0                       # What write queue length does an incoming req see
system.mem_ctrls0.wrQLenPdf::90                     0                       # What write queue length does an incoming req see
system.mem_ctrls0.wrQLenPdf::91                     0                       # What write queue length does an incoming req see
system.mem_ctrls0.wrQLenPdf::92                     0                       # What write queue length does an incoming req see
system.mem_ctrls0.wrQLenPdf::93                     0                       # What write queue length does an incoming req see
system.mem_ctrls0.wrQLenPdf::94                     0                       # What write queue length does an incoming req see
system.mem_ctrls0.wrQLenPdf::95                     0                       # What write queue length does an incoming req see
system.mem_ctrls0.wrQLenPdf::96                     0                       # What write queue length does an incoming req see
system.mem_ctrls0.wrQLenPdf::97                     0                       # What write queue length does an incoming req see
system.mem_ctrls0.wrQLenPdf::98                     0                       # What write queue length does an incoming req see
system.mem_ctrls0.wrQLenPdf::99                     0                       # What write queue length does an incoming req see
system.mem_ctrls0.wrQLenPdf::100                    0                       # What write queue length does an incoming req see
system.mem_ctrls0.wrQLenPdf::101                    0                       # What write queue length does an incoming req see
system.mem_ctrls0.wrQLenPdf::102                    0                       # What write queue length does an incoming req see
system.mem_ctrls0.wrQLenPdf::103                    0                       # What write queue length does an incoming req see
system.mem_ctrls0.wrQLenPdf::104                    0                       # What write queue length does an incoming req see
system.mem_ctrls0.wrQLenPdf::105                    0                       # What write queue length does an incoming req see
system.mem_ctrls0.wrQLenPdf::106                    0                       # What write queue length does an incoming req see
system.mem_ctrls0.wrQLenPdf::107                    0                       # What write queue length does an incoming req see
system.mem_ctrls0.wrQLenPdf::108                    0                       # What write queue length does an incoming req see
system.mem_ctrls0.wrQLenPdf::109                    0                       # What write queue length does an incoming req see
system.mem_ctrls0.wrQLenPdf::110                    0                       # What write queue length does an incoming req see
system.mem_ctrls0.wrQLenPdf::111                    0                       # What write queue length does an incoming req see
system.mem_ctrls0.wrQLenPdf::112                    0                       # What write queue length does an incoming req see
system.mem_ctrls0.wrQLenPdf::113                    0                       # What write queue length does an incoming req see
system.mem_ctrls0.wrQLenPdf::114                    0                       # What write queue length does an incoming req see
system.mem_ctrls0.wrQLenPdf::115                    0                       # What write queue length does an incoming req see
system.mem_ctrls0.wrQLenPdf::116                    0                       # What write queue length does an incoming req see
system.mem_ctrls0.wrQLenPdf::117                    0                       # What write queue length does an incoming req see
system.mem_ctrls0.wrQLenPdf::118                    0                       # What write queue length does an incoming req see
system.mem_ctrls0.wrQLenPdf::119                    0                       # What write queue length does an incoming req see
system.mem_ctrls0.wrQLenPdf::120                    0                       # What write queue length does an incoming req see
system.mem_ctrls0.wrQLenPdf::121                    0                       # What write queue length does an incoming req see
system.mem_ctrls0.wrQLenPdf::122                    0                       # What write queue length does an incoming req see
system.mem_ctrls0.wrQLenPdf::123                    0                       # What write queue length does an incoming req see
system.mem_ctrls0.wrQLenPdf::124                    0                       # What write queue length does an incoming req see
system.mem_ctrls0.wrQLenPdf::125                    0                       # What write queue length does an incoming req see
system.mem_ctrls0.wrQLenPdf::126                    0                       # What write queue length does an incoming req see
system.mem_ctrls0.wrQLenPdf::127                    0                       # What write queue length does an incoming req see
system.mem_ctrls0.bytesPerActivate::samples       233803                       # Bytes accessed per row activation
system.mem_ctrls0.bytesPerActivate::mean   638.564261                       # Bytes accessed per row activation
system.mem_ctrls0.bytesPerActivate::gmean   498.390914                       # Bytes accessed per row activation
system.mem_ctrls0.bytesPerActivate::stdev   347.983800                       # Bytes accessed per row activation
system.mem_ctrls0.bytesPerActivate::0-127         9758      4.17%      4.17% # Bytes accessed per row activation
system.mem_ctrls0.bytesPerActivate::128-255        35275     15.09%     19.26% # Bytes accessed per row activation
system.mem_ctrls0.bytesPerActivate::256-383        13838      5.92%     25.18% # Bytes accessed per row activation
system.mem_ctrls0.bytesPerActivate::384-511        26086     11.16%     36.34% # Bytes accessed per row activation
system.mem_ctrls0.bytesPerActivate::512-639        20333      8.70%     45.03% # Bytes accessed per row activation
system.mem_ctrls0.bytesPerActivate::640-767        21744      9.30%     54.33% # Bytes accessed per row activation
system.mem_ctrls0.bytesPerActivate::768-895        18150      7.76%     62.10% # Bytes accessed per row activation
system.mem_ctrls0.bytesPerActivate::896-1023        12272      5.25%     67.35% # Bytes accessed per row activation
system.mem_ctrls0.bytesPerActivate::1024-1151        76347     32.65%    100.00% # Bytes accessed per row activation
system.mem_ctrls0.bytesPerActivate::total       233803                       # Bytes accessed per row activation
system.mem_ctrls0.rdPerTurnAround::samples        67637                       # Reads before turning the bus around for writes
system.mem_ctrls0.rdPerTurnAround::mean     17.369872                       # Reads before turning the bus around for writes
system.mem_ctrls0.rdPerTurnAround::gmean    17.061410                       # Reads before turning the bus around for writes
system.mem_ctrls0.rdPerTurnAround::stdev    60.167344                       # Reads before turning the bus around for writes
system.mem_ctrls0.rdPerTurnAround::0-255        67633     99.99%     99.99% # Reads before turning the bus around for writes
system.mem_ctrls0.rdPerTurnAround::256-511            2      0.00%    100.00% # Reads before turning the bus around for writes
system.mem_ctrls0.rdPerTurnAround::512-767            1      0.00%    100.00% # Reads before turning the bus around for writes
system.mem_ctrls0.rdPerTurnAround::15616-15871            1      0.00%    100.00% # Reads before turning the bus around for writes
system.mem_ctrls0.rdPerTurnAround::total        67637                       # Reads before turning the bus around for writes
system.mem_ctrls0.wrPerTurnAround::samples        67636                       # Writes before turning the bus around for reads
system.mem_ctrls0.wrPerTurnAround::mean     17.120291                       # Writes before turning the bus around for reads
system.mem_ctrls0.wrPerTurnAround::gmean    17.069727                       # Writes before turning the bus around for reads
system.mem_ctrls0.wrPerTurnAround::stdev     1.344494                       # Writes before turning the bus around for reads
system.mem_ctrls0.wrPerTurnAround::16           34977     51.71%     51.71% # Writes before turning the bus around for reads
system.mem_ctrls0.wrPerTurnAround::17            5294      7.83%     59.54% # Writes before turning the bus around for reads
system.mem_ctrls0.wrPerTurnAround::18           16480     24.37%     83.91% # Writes before turning the bus around for reads
system.mem_ctrls0.wrPerTurnAround::19            7425     10.98%     94.88% # Writes before turning the bus around for reads
system.mem_ctrls0.wrPerTurnAround::20            2618      3.87%     98.76% # Writes before turning the bus around for reads
system.mem_ctrls0.wrPerTurnAround::21             281      0.42%     99.17% # Writes before turning the bus around for reads
system.mem_ctrls0.wrPerTurnAround::22             561      0.83%    100.00% # Writes before turning the bus around for reads
system.mem_ctrls0.wrPerTurnAround::total        67636                       # Writes before turning the bus around for reads
system.mem_ctrls0.masterReadBytes::.cpu.inst        23680                       # Per-master bytes read from memory
system.mem_ctrls0.masterReadBytes::.cpu.data      1179712                       # Per-master bytes read from memory
system.mem_ctrls0.masterReadBytes::.l2.prefetcher     73986752                       # Per-master bytes read from memory
system.mem_ctrls0.masterWriteBytes::.writebacks     74109568                       # Per-master bytes write to memory
system.mem_ctrls0.masterReadRate::.cpu.inst 236800.000000000000                       # Per-master bytes read from memory rate (Bytes/sec)
system.mem_ctrls0.masterReadRate::.cpu.data 11797120.000000000000                       # Per-master bytes read from memory rate (Bytes/sec)
system.mem_ctrls0.masterReadRate::.l2.prefetcher 739867520.000000000000                       # Per-master bytes read from memory rate (Bytes/sec)
system.mem_ctrls0.masterWriteRate::.writebacks 741095680.000000000000                       # Per-master bytes write to memory rate (Bytes/sec)
system.mem_ctrls0.masterReadAccesses::.cpu.inst          370                       # Per-master read serviced memory accesses
system.mem_ctrls0.masterReadAccesses::.cpu.data        18433                       # Per-master read serviced memory accesses
system.mem_ctrls0.masterReadAccesses::.l2.prefetcher      1156043                       # Per-master read serviced memory accesses
system.mem_ctrls0.masterWriteAccesses::.writebacks      1158013                       # Per-master write serviced memory accesses
system.mem_ctrls0.masterReadTotalLat::.cpu.inst     13833673                       # Per-master read total memory access latency
system.mem_ctrls0.masterReadTotalLat::.cpu.data    993322596                       # Per-master read total memory access latency
system.mem_ctrls0.masterReadTotalLat::.l2.prefetcher  51339828678                       # Per-master read total memory access latency
system.mem_ctrls0.masterWriteTotalLat::.writebacks 5561157261633                       # Per-master write total memory access latency
system.mem_ctrls0.masterReadAvgLat::.cpu.inst     37388.31                       # Per-master read average memory access latency
system.mem_ctrls0.masterReadAvgLat::.cpu.data     53888.28                       # Per-master read average memory access latency
system.mem_ctrls0.masterReadAvgLat::.l2.prefetcher     44409.96                       # Per-master read average memory access latency
system.mem_ctrls0.masterWriteAvgLat::.writebacks   4802327.14                       # Per-master write average memory access latency
system.mem_ctrls0.totQLat                 31796578715                       # Total ticks spent queuing
system.mem_ctrls0.totMemAccLat            52346984947                       # Total ticks spent from burst creation until serviced by the DRAM
system.mem_ctrls0.totBusLat                3914586872                       # Total ticks spent in databus transfers
system.mem_ctrls0.avgQLat                    27064.47                       # Average queueing delay per DRAM burst
system.mem_ctrls0.avgBusLat                   3332.00                       # Average bus latency per DRAM burst
system.mem_ctrls0.avgMemAccLat               44556.47                       # Average memory access latency per DRAM burst
system.mem_ctrls0.avgRdBW                      751.90                       # Average DRAM read bandwidth in MiByte/s
system.mem_ctrls0.avgWrBW                      741.10                       # Average achieved write bandwidth in MiByte/s
system.mem_ctrls0.avgRdBWSys                   751.90                       # Average system read bandwidth in MiByte/s
system.mem_ctrls0.avgWrBWSys                   741.13                       # Average system write bandwidth in MiByte/s
system.mem_ctrls0.peakBW                     19207.00                       # Theoretical peak bandwidth in MiByte/s
system.mem_ctrls0.busUtil                        7.77                       # Data bus utilization in percentage
system.mem_ctrls0.busUtilRead                    3.91                       # Data bus utilization in percentage for reads
system.mem_ctrls0.busUtilWrite                   3.86                       # Data bus utilization in percentage for writes
system.mem_ctrls0.avgRdQLen                      1.43                       # Average read queue length when enqueuing
system.mem_ctrls0.avgWrQLen                     57.03                       # Average write queue length when enqueuing
system.mem_ctrls0.readRowHits                 1058076                       # Number of row buffer hits during reads
system.mem_ctrls0.writeRowHits                1040926                       # Number of row buffer hits during writes
system.mem_ctrls0.readRowHitRate                90.06                       # Row buffer hit rate for reads
system.mem_ctrls0.writeRowHitRate               89.89                       # Row buffer hit rate for writes
system.mem_ctrls0.avgGap                     42865.84                       # Average gap between requests
system.mem_ctrls0.pageHitRate                   89.98                       # Row buffer hit rate, read and write combined
system.mem_ctrls0_0.actEnergy            364145483.520007                       # Energy for activate commands per rank (pJ)
system.mem_ctrls0_0.preEnergy            484126751.808001                       # Energy for precharge commands per rank (pJ)
system.mem_ctrls0_0.readEnergy           2469911368.108794                       # Energy for read commands per rank (pJ)
system.mem_ctrls0_0.writeEnergy          2174797332.959965                       # Energy for write commands per rank (pJ)
system.mem_ctrls0_0.refreshEnergy        10722822834.527235                       # Energy for refresh commands per rank (pJ)
system.mem_ctrls0_0.actBackEnergy        23131858074.192062                       # Energy for active background per rank (pJ)
system.mem_ctrls0_0.preBackEnergy        369796502.207998                       # Energy for precharge background per rank (pJ)
system.mem_ctrls0_0.actPowerDownEnergy   17916548656.742378                       # Energy for active power-down per rank (pJ)
system.mem_ctrls0_0.prePowerDownEnergy   1639666670.879935                       # Energy for precharge power-down per rank (pJ)
system.mem_ctrls0_0.selfRefreshEnergy    23171092466.155285                       # Energy for self refresh per rank (pJ)
system.mem_ctrls0_0.totalEnergy          82444995485.327805                       # Total energy per rank (pJ)
system.mem_ctrls0_0.averagePower           824.449955                       # Core power per rank (mW)
system.mem_ctrls0_0.totalIdleTime         72138390506                       # Total Idle time Per DRAM Rank
system.mem_ctrls0_0.memoryStateTime::IDLE    155112000                       # Time in different power states
system.mem_ctrls0_0.memoryStateTime::REF   2709000000                       # Time in different power states
system.mem_ctrls0_0.memoryStateTime::SREF  39629466560                       # Time in different power states
system.mem_ctrls0_0.memoryStateTime::PRE_PDN   3415983047                       # Time in different power states
system.mem_ctrls0_0.memoryStateTime::ACT  24929390495                       # Time in different power states
system.mem_ctrls0_0.memoryStateTime::ACT_PDN  29161047898                       # Time in different power states
system.mem_ctrls0_1.actEnergy            365037446.592001                       # Energy for activate commands per rank (pJ)
system.mem_ctrls0_1.preEnergy            485300166.254394                       # Energy for precharge commands per rank (pJ)
system.mem_ctrls0_1.readEnergy           2471863099.104000                       # Energy for read commands per rank (pJ)
system.mem_ctrls0_1.writeEnergy          2177364385.728043                       # Energy for write commands per rank (pJ)
system.mem_ctrls0_1.refreshEnergy        10776852561.988003                       # Energy for refresh commands per rank (pJ)
system.mem_ctrls0_1.actBackEnergy        22954921089.307236                       # Energy for active background per rank (pJ)
system.mem_ctrls0_1.preBackEnergy        388375915.468799                       # Energy for precharge background per rank (pJ)
system.mem_ctrls0_1.actPowerDownEnergy   17991219576.422321                       # Energy for active power-down per rank (pJ)
system.mem_ctrls0_1.prePowerDownEnergy   1825352766.719930                       # Energy for precharge power-down per rank (pJ)
system.mem_ctrls0_1.selfRefreshEnergy    23145135069.268837                       # Energy for self refresh per rank (pJ)
system.mem_ctrls0_1.totalEnergy          82597505896.752136                       # Total energy per rank (pJ)
system.mem_ctrls0_1.averagePower           825.975059                       # Core power per rank (mW)
system.mem_ctrls0_1.totalIdleTime         72367430637                       # Total Idle time Per DRAM Rank
system.mem_ctrls0_1.memoryStateTime::IDLE    212785000                       # Time in different power states
system.mem_ctrls0_1.memoryStateTime::REF   2722650000                       # Time in different power states
system.mem_ctrls0_1.memoryStateTime::SREF  39281994881                       # Time in different power states
system.mem_ctrls0_1.memoryStateTime::PRE_PDN   3802824781                       # Time in different power states
system.mem_ctrls0_1.memoryStateTime::ACT  24697134363                       # Time in different power states
system.mem_ctrls0_1.memoryStateTime::ACT_PDN  29282610975                       # Time in different power states
system.mem_ctrls1.pwrStateResidencyTicks::UNDEFINED 100000000000                       # Cumulative time (in ticks) in various power states
system.mem_ctrls1.bytes_read::.cpu.inst         23616                       # Number of bytes read from this memory
system.mem_ctrls1.bytes_read::.cpu.data       1186304                       # Number of bytes read from this memory
system.mem_ctrls1.bytes_read::.l2.prefetcher     73980480                       # Number of bytes read from this memory
system.mem_ctrls1.bytes_read::total          75190400                       # Number of bytes read from this memory
system.mem_ctrls1.bytes_inst_read::.cpu.inst        23616                       # Number of instructions bytes read from this memory
system.mem_ctrls1.bytes_inst_read::total        23616                       # Number of instructions bytes read from this memory
system.mem_ctrls1.bytes_written::.writebacks     74112256                       # Number of bytes written to this memory
system.mem_ctrls1.bytes_written::total       74112256                       # Number of bytes written to this memory
system.mem_ctrls1.num_reads::.cpu.inst            369                       # Number of read requests responded to by this memory
system.mem_ctrls1.num_reads::.cpu.data          18536                       # Number of read requests responded to by this memory
system.mem_ctrls1.num_reads::.l2.prefetcher      1155945                       # Number of read requests responded to by this memory
system.mem_ctrls1.num_reads::total            1174850                       # Number of read requests responded to by this memory
system.mem_ctrls1.num_writes::.writebacks      1158004                       # Number of write requests responded to by this memory
system.mem_ctrls1.num_writes::total           1158004                       # Number of write requests responded to by this memory
system.mem_ctrls1.bw_read::.cpu.inst           236160                       # Total read bandwidth from this memory (bytes/s)
system.mem_ctrls1.bw_read::.cpu.data         11863040                       # Total read bandwidth from this memory (bytes/s)
system.mem_ctrls1.bw_read::.l2.prefetcher    739804800                       # Total read bandwidth from this memory (bytes/s)
system.mem_ctrls1.bw_read::total            751904000                       # Total read bandwidth from this memory (bytes/s)
system.mem_ctrls1.bw_inst_read::.cpu.inst       236160                       # Instruction read bandwidth from this memory (bytes/s)
system.mem_ctrls1.bw_inst_read::total          236160                       # Instruction read bandwidth from this memory (bytes/s)
system.mem_ctrls1.bw_write::.writebacks     741122560                       # Write bandwidth from this memory (bytes/s)
system.mem_ctrls1.bw_write::total           741122560                       # Write bandwidth from this memory (bytes/s)
system.mem_ctrls1.bw_total::.writebacks     741122560                       # Total bandwidth to/from this memory (bytes/s)
system.mem_ctrls1.bw_total::.cpu.inst          236160                       # Total bandwidth to/from this memory (bytes/s)
system.mem_ctrls1.bw_total::.cpu.data        11863040                       # Total bandwidth to/from this memory (bytes/s)
system.mem_ctrls1.bw_total::.l2.prefetcher    739804800                       # Total bandwidth to/from this memory (bytes/s)
system.mem_ctrls1.bw_total::total          1493026560                       # Total bandwidth to/from this memory (bytes/s)
system.mem_ctrls1.avgPriority_.writebacks::samples   1158004.00                       # Average QoS priority value for accepted requests
system.mem_ctrls1.avgPriority_.cpu.inst::samples       369.00                       # Average QoS priority value for accepted requests
system.mem_ctrls1.avgPriority_.cpu.data::samples     18536.00                       # Average QoS priority value for accepted requests
system.mem_ctrls1.avgPriority_.l2.prefetcher::samples   1155946.00                       # Average QoS priority value for accepted requests
system.mem_ctrls1.priorityMinLatency     0.000000017492                       # per QoS priority minimum request to response latency (s)
system.mem_ctrls1.priorityMaxLatency     0.000297257652                       # per QoS priority maximum request to response latency (s)
system.mem_ctrls1.numReadWriteTurnArounds        67777                       # Number of turnarounds from READ to WRITE
system.mem_ctrls1.numWriteReadTurnArounds        67777                       # Number of turnarounds from WRITE to READ
system.mem_ctrls1.numStayReadState            3371549                       # Number of times bus staying in READ state
system.mem_ctrls1.numStayWriteState           1095208                       # Number of times bus staying in WRITE state
system.mem_ctrls1.readReqs                    1174851                       # Number of read requests accepted
system.mem_ctrls1.writeReqs                   1158004                       # Number of write requests accepted
system.mem_ctrls1.readBursts                  1174851                       # Number of DRAM read bursts, including those serviced by the write queue
system.mem_ctrls1.writeBursts                 1158004                       # Number of DRAM write bursts, including those merged in the write queue
system.mem_ctrls1.bytesReadDRAM              75190464                       # Total number of bytes read from DRAM
system.mem_ctrls1.bytesReadWrQ                      0                       # Total number of bytes read from write queue
system.mem_ctrls1.bytesWritten               74108992                       # Total number of bytes written to DRAM
system.mem_ctrls1.bytesReadSys               75190464                       # Total read bytes from the system interface side
system.mem_ctrls1.bytesWrittenSys            74112256                       # Total written bytes from the system interface side
system.mem_ctrls1.servicedByWrQ                     0                       # Number of DRAM read bursts serviced by the write queue
system.mem_ctrls1.mergedWrBursts                    0                       # Number of DRAM write bursts merged with an existing one
system.mem_ctrls1.neitherReadNorWriteReqs            0                       # Number of requests that are neither read nor write
system.mem_ctrls1.perBankRdBursts::0            36679                       # Per bank write bursts
system.mem_ctrls1.perBankRdBursts::1            36647                       # Per bank write bursts
system.mem_ctrls1.perBankRdBursts::2            36622                       # Per bank write bursts
system.mem_ctrls1.perBankRdBursts::3            36622                       # Per bank write bursts
system.mem_ctrls1.perBankRdBursts::4            36615                       # Per bank write bursts
system.mem_ctrls1.perBankRdBursts::5            36645                       # Per bank write bursts
system.mem_ctrls1.perBankRdBursts::6            36635                       # Per bank write bursts
system.mem_ctrls1.perBankRdBursts::7            36692                       # Per bank write bursts
system.mem_ctrls1.perBankRdBursts::8            36737                       # Per bank write bursts
system.mem_ctrls1.perBankRdBursts::9            36739                       # Per bank write bursts
system.mem_ctrls1.perBankRdBursts::10           36759                       # Per bank write bursts
system.mem_ctrls1.perBankRdBursts::11           36754                       # Per bank write bursts
system.mem_ctrls1.perBankRdBursts::12           36798                       # Per bank write bursts
system.mem_ctrls1.perBankRdBursts::13           36751                       # Per bank write bursts
system.mem_ctrls1.perBankRdBursts::14           36752                       # Per bank write bursts
system.mem_ctrls1.perBankRdBursts::15           36740                       # Per bank write bursts
system.mem_ctrls1.perBankRdBursts::16           36736                       # Per bank write bursts
system.mem_ctrls1.perBankRdBursts::17           36741                       # Per bank write bursts
system.mem_ctrls1.perBankRdBursts::18           36739                       # Per bank write bursts
system.mem_ctrls1.perBankRdBursts::19           36743                       # Per bank write bursts
system.mem_ctrls1.perBankRdBursts::20           36790                       # Per bank write bursts
system.mem_ctrls1.perBankRdBursts::21           36784                       # Per bank write bursts
system.mem_ctrls1.perBankRdBursts::22           36736                       # Per bank write bursts
system.mem_ctrls1.perBankRdBursts::23           36785                       # Per bank write bursts
system.mem_ctrls1.perBankRdBursts::24           36768                       # Per bank write bursts
system.mem_ctrls1.perBankRdBursts::25           36740                       # Per bank write bursts
system.mem_ctrls1.perBankRdBursts::26           36738                       # Per bank write bursts
system.mem_ctrls1.perBankRdBursts::27           36736                       # Per bank write bursts
system.mem_ctrls1.perBankRdBursts::28           36750                       # Per bank write bursts
system.mem_ctrls1.perBankRdBursts::29           36647                       # Per bank write bursts
system.mem_ctrls1.perBankRdBursts::30           36623                       # Per bank write bursts
system.mem_ctrls1.perBankRdBursts::31           36608                       # Per bank write bursts
system.mem_ctrls1.perBankWrBursts::0            36096                       # Per bank write bursts
system.mem_ctrls1.perBankWrBursts::1            36096                       # Per bank write bursts
system.mem_ctrls1.perBankWrBursts::2            36096                       # Per bank write bursts
system.mem_ctrls1.perBankWrBursts::3            36096                       # Per bank write bursts
system.mem_ctrls1.perBankWrBursts::4            36097                       # Per bank write bursts
system.mem_ctrls1.perBankWrBursts::5            36096                       # Per bank write bursts
system.mem_ctrls1.perBankWrBursts::6            36097                       # Per bank write bursts
system.mem_ctrls1.perBankWrBursts::7            36168                       # Per bank write bursts
system.mem_ctrls1.perBankWrBursts::8            36224                       # Per bank write bursts
system.mem_ctrls1.perBankWrBursts::9            36224                       # Per bank write bursts
system.mem_ctrls1.perBankWrBursts::10           36224                       # Per bank write bursts
system.mem_ctrls1.perBankWrBursts::11           36224                       # Per bank write bursts
system.mem_ctrls1.perBankWrBursts::12           36224                       # Per bank write bursts
system.mem_ctrls1.perBankWrBursts::13           36224                       # Per bank write bursts
system.mem_ctrls1.perBankWrBursts::14           36224                       # Per bank write bursts
system.mem_ctrls1.perBankWrBursts::15           36224                       # Per bank write bursts
system.mem_ctrls1.perBankWrBursts::16           36224                       # Per bank write bursts
system.mem_ctrls1.perBankWrBursts::17           36225                       # Per bank write bursts
system.mem_ctrls1.perBankWrBursts::18           36224                       # Per bank write bursts
system.mem_ctrls1.perBankWrBursts::19           36229                       # Per bank write bursts
system.mem_ctrls1.perBankWrBursts::20           36269                       # Per bank write bursts
system.mem_ctrls1.perBankWrBursts::21           36230                       # Per bank write bursts
system.mem_ctrls1.perBankWrBursts::22           36220                       # Per bank write bursts
system.mem_ctrls1.perBankWrBursts::23           36227                       # Per bank write bursts
system.mem_ctrls1.perBankWrBursts::24           36241                       # Per bank write bursts
system.mem_ctrls1.perBankWrBursts::25           36224                       # Per bank write bursts
system.mem_ctrls1.perBankWrBursts::26           36224                       # Per bank write bursts
system.mem_ctrls1.perBankWrBursts::27           36224                       # Per bank write bursts
system.mem_ctrls1.perBankWrBursts::28           36231                       # Per bank write bursts
system.mem_ctrls1.perBankWrBursts::29           36122                       # Per bank write bursts
system.mem_ctrls1.perBankWrBursts::30           36109                       # Per bank write bursts
system.mem_ctrls1.perBankWrBursts::31           36096                       # Per bank write bursts
system.mem_ctrls1.numRdRetry                        0                       # Number of times read queue was full causing retry
system.mem_ctrls1.numWrRetry                        0                       # Number of times write queue was full causing retry
system.mem_ctrls1.totGap                  99999849507                       # Total gap between requests
system.mem_ctrls1.readPktSize::0                    0                       # Read request sizes (log2)
system.mem_ctrls1.readPktSize::1                    0                       # Read request sizes (log2)
system.mem_ctrls1.readPktSize::2                    0                       # Read request sizes (log2)
system.mem_ctrls1.readPktSize::3                    0                       # Read request sizes (log2)
system.mem_ctrls1.readPktSize::4                    0                       # Read request sizes (log2)
system.mem_ctrls1.readPktSize::5                    0                       # Read request sizes (log2)
system.mem_ctrls1.readPktSize::6              1174851                       # Read request sizes (log2)
system.mem_ctrls1.writePktSize::0                   0                       # Write request sizes (log2)
system.mem_ctrls1.writePktSize::1                   0                       # Write request sizes (log2)
system.mem_ctrls1.writePktSize::2                   0                       # Write request sizes (log2)
system.mem_ctrls1.writePktSize::3                   0                       # Write request sizes (log2)
system.mem_ctrls1.writePktSize::4                   0                       # Write request sizes (log2)
system.mem_ctrls1.writePktSize::5                   0                       # Write request sizes (log2)
system.mem_ctrls1.writePktSize::6             1158004                       # Write request sizes (log2)
system.mem_ctrls1.rdQLenPdf::0                 949338                       # What read queue length does an incoming req see
system.mem_ctrls1.rdQLenPdf::1                 107709                       # What read queue length does an incoming req see
system.mem_ctrls1.rdQLenPdf::2                  47894                       # What read queue length does an incoming req see
system.mem_ctrls1.rdQLenPdf::3                  47030                       # What read queue length does an incoming req see
system.mem_ctrls1.rdQLenPdf::4                  22879                       # What read queue length does an incoming req see
system.mem_ctrls1.rdQLenPdf::5                      1                       # What read queue length does an incoming req see
system.mem_ctrls1.rdQLenPdf::6                      0                       # What read queue length does an incoming req see
system.mem_ctrls1.rdQLenPdf::7                      0                       # What read queue length does an incoming req see
system.mem_ctrls1.rdQLenPdf::8                      0                       # What read queue length does an incoming req see
system.mem_ctrls1.rdQLenPdf::9                      0                       # What read queue length does an incoming req see
system.mem_ctrls1.rdQLenPdf::10                     0                       # What read queue length does an incoming req see
system.mem_ctrls1.rdQLenPdf::11                     0                       # What read queue length does an incoming req see
system.mem_ctrls1.rdQLenPdf::12                     0                       # What read queue length does an incoming req see
system.mem_ctrls1.rdQLenPdf::13                     0                       # What read queue length does an incoming req see
system.mem_ctrls1.rdQLenPdf::14                     0                       # What read queue length does an incoming req see
system.mem_ctrls1.rdQLenPdf::15                     0                       # What read queue length does an incoming req see
system.mem_ctrls1.rdQLenPdf::16                     0                       # What read queue length does an incoming req see
system.mem_ctrls1.rdQLenPdf::17                     0                       # What read queue length does an incoming req see
system.mem_ctrls1.rdQLenPdf::18                     0                       # What read queue length does an incoming req see
system.mem_ctrls1.rdQLenPdf::19                     0                       # What read queue length does an incoming req see
system.mem_ctrls1.rdQLenPdf::20                     0                       # What read queue length does an incoming req see
system.mem_ctrls1.rdQLenPdf::21                     0                       # What read queue length does an incoming req see
system.mem_ctrls1.rdQLenPdf::22                     0                       # What read queue length does an incoming req see
system.mem_ctrls1.rdQLenPdf::23                     0                       # What read queue length does an incoming req see
system.mem_ctrls1.rdQLenPdf::24                     0                       # What read queue length does an incoming req see
system.mem_ctrls1.rdQLenPdf::25                     0                       # What read queue length does an incoming req see
system.mem_ctrls1.rdQLenPdf::26                     0                       # What read queue length does an incoming req see
system.mem_ctrls1.rdQLenPdf::27                     0                       # What read queue length does an incoming req see
system.mem_ctrls1.rdQLenPdf::28                     0                       # What read queue length does an incoming req see
system.mem_ctrls1.rdQLenPdf::29                     0                       # What read queue length does an incoming req see
system.mem_ctrls1.rdQLenPdf::30                     0                       # What read queue length does an incoming req see
system.mem_ctrls1.rdQLenPdf::31                     0                       # What read queue length does an incoming req see
system.mem_ctrls1.rdQLenPdf::32                     0                       # What read queue length does an incoming req see
system.mem_ctrls1.rdQLenPdf::33                     0                       # What read queue length does an incoming req see
system.mem_ctrls1.rdQLenPdf::34                     0                       # What read queue length does an incoming req see
system.mem_ctrls1.rdQLenPdf::35                     0                       # What read queue length does an incoming req see
system.mem_ctrls1.rdQLenPdf::36                     0                       # What read queue length does an incoming req see
system.mem_ctrls1.rdQLenPdf::37                     0                       # What read queue length does an incoming req see
system.mem_ctrls1.rdQLenPdf::38                     0                       # What read queue length does an incoming req see
system.mem_ctrls1.rdQLenPdf::39                     0                       # What read queue length does an incoming req see
system.mem_ctrls1.rdQLenPdf::40                     0                       # What read queue length does an incoming req see
system.mem_ctrls1.rdQLenPdf::41                     0                       # What read queue length does an incoming req see
system.mem_ctrls1.rdQLenPdf::42                     0                       # What read queue length does an incoming req see
system.mem_ctrls1.rdQLenPdf::43                     0                       # What read queue length does an incoming req see
system.mem_ctrls1.rdQLenPdf::44                     0                       # What read queue length does an incoming req see
system.mem_ctrls1.rdQLenPdf::45                     0                       # What read queue length does an incoming req see
system.mem_ctrls1.rdQLenPdf::46                     0                       # What read queue length does an incoming req see
system.mem_ctrls1.rdQLenPdf::47                     0                       # What read queue length does an incoming req see
system.mem_ctrls1.rdQLenPdf::48                     0                       # What read queue length does an incoming req see
system.mem_ctrls1.rdQLenPdf::49                     0                       # What read queue length does an incoming req see
system.mem_ctrls1.rdQLenPdf::50                     0                       # What read queue length does an incoming req see
system.mem_ctrls1.rdQLenPdf::51                     0                       # What read queue length does an incoming req see
system.mem_ctrls1.rdQLenPdf::52                     0                       # What read queue length does an incoming req see
system.mem_ctrls1.rdQLenPdf::53                     0                       # What read queue length does an incoming req see
system.mem_ctrls1.rdQLenPdf::54                     0                       # What read queue length does an incoming req see
system.mem_ctrls1.rdQLenPdf::55                     0                       # What read queue length does an incoming req see
system.mem_ctrls1.rdQLenPdf::56                     0                       # What read queue length does an incoming req see
system.mem_ctrls1.rdQLenPdf::57                     0                       # What read queue length does an incoming req see
system.mem_ctrls1.rdQLenPdf::58                     0                       # What read queue length does an incoming req see
system.mem_ctrls1.rdQLenPdf::59                     0                       # What read queue length does an incoming req see
system.mem_ctrls1.rdQLenPdf::60                     0                       # What read queue length does an incoming req see
system.mem_ctrls1.rdQLenPdf::61                     0                       # What read queue length does an incoming req see
system.mem_ctrls1.rdQLenPdf::62                     0                       # What read queue length does an incoming req see
system.mem_ctrls1.rdQLenPdf::63                     0                       # What read queue length does an incoming req see
system.mem_ctrls1.wrQLenPdf::0                      1                       # What write queue length does an incoming req see
system.mem_ctrls1.wrQLenPdf::1                      1                       # What write queue length does an incoming req see
system.mem_ctrls1.wrQLenPdf::2                      1                       # What write queue length does an incoming req see
system.mem_ctrls1.wrQLenPdf::3                      1                       # What write queue length does an incoming req see
system.mem_ctrls1.wrQLenPdf::4                      1                       # What write queue length does an incoming req see
system.mem_ctrls1.wrQLenPdf::5                      1                       # What write queue length does an incoming req see
system.mem_ctrls1.wrQLenPdf::6                      1                       # What write queue length does an incoming req see
system.mem_ctrls1.wrQLenPdf::7                      1                       # What write queue length does an incoming req see
system.mem_ctrls1.wrQLenPdf::8                      1                       # What write queue length does an incoming req see
system.mem_ctrls1.wrQLenPdf::9                      1                       # What write queue length does an incoming req see
system.mem_ctrls1.wrQLenPdf::10                     1                       # What write queue length does an incoming req see
system.mem_ctrls1.wrQLenPdf::11                     1                       # What write queue length does an incoming req see
system.mem_ctrls1.wrQLenPdf::12                     1                       # What write queue length does an incoming req see
system.mem_ctrls1.wrQLenPdf::13                     1                       # What write queue length does an incoming req see
system.mem_ctrls1.wrQLenPdf::14                     1                       # What write queue length does an incoming req see
system.mem_ctrls1.wrQLenPdf::15                     1                       # What write queue length does an incoming req see
system.mem_ctrls1.wrQLenPdf::16                     1                       # What write queue length does an incoming req see
system.mem_ctrls1.wrQLenPdf::17                     1                       # What write queue length does an incoming req see
system.mem_ctrls1.wrQLenPdf::18                     1                       # What write queue length does an incoming req see
system.mem_ctrls1.wrQLenPdf::19                     1                       # What write queue length does an incoming req see
system.mem_ctrls1.wrQLenPdf::20                     1                       # What write queue length does an incoming req see
system.mem_ctrls1.wrQLenPdf::21                     1                       # What write queue length does an incoming req see
system.mem_ctrls1.wrQLenPdf::22                     1                       # What write queue length does an incoming req see
[...]
system.l2.blocked::no_targets                       0                       # number of cycles access was blocked
system.l2.avg_blocked_cycles::no_mshrs            nan                       # average number of cycles each access was blocked
system.l2.avg_blocked_cycles::no_targets          nan                       # average number of cycles each access was blocked
system.l2.unused_prefetches                        52                       # number of HardPF blocks evicted w/o reference
system.l2.writebacks::.writebacks             2316018                       # number of writebacks
system.l2.writebacks::total                   2316018                       # number of writebacks
system.l2.ReadExReq_mshr_hits::.cpu.data        12825                       # number of ReadExReq MSHR hits
system.l2.ReadExReq_mshr_hits::total            12825                       # number of ReadExReq MSHR hits
system.l2.demand_mshr_hits::.cpu.data           12825                       # number of demand (read+write) MSHR hits
system.l2.demand_mshr_hits::total               12825                       # number of demand (read+write) MSHR hits
system.l2.overall_mshr_hits::.cpu.data          12825                       # number of overall MSHR hits
system.l2.overall_mshr_hits::total              12825                       # number of overall MSHR hits
system.l2.HardPFReq_mshr_misses::.l2.prefetcher      2312591                       # number of HardPFReq MSHR misses
system.l2.HardPFReq_mshr_misses::total        2312591                       # number of HardPFReq MSHR misses
system.l2.UpgradeReq_mshr_misses::.cpu.data            2                       # number of UpgradeReq MSHR misses
system.l2.UpgradeReq_mshr_misses::total             2                       # number of UpgradeReq MSHR misses
system.l2.ReadExReq_mshr_misses::.cpu.data        36855                       # number of ReadExReq MSHR misses
system.l2.ReadExReq_mshr_misses::total          36855                       # number of ReadExReq MSHR misses
system.l2.ReadCleanReq_mshr_misses::.cpu.inst          739                       # number of ReadCleanReq MSHR misses
system.l2.ReadCleanReq_mshr_misses::total          739                       # number of ReadCleanReq MSHR misses
system.l2.ReadSharedReq_mshr_misses::.cpu.data          114                       # number of ReadSharedReq MSHR misses
system.l2.ReadSharedReq_mshr_misses::total          114                       # number of ReadSharedReq MSHR misses
system.l2.demand_mshr_misses::.cpu.inst           739                       # number of demand (read+write) MSHR misses
system.l2.demand_mshr_misses::.cpu.data         36969                       # number of demand (read+write) MSHR misses
system.l2.demand_mshr_misses::total             37708                       # number of demand (read+write) MSHR misses
system.l2.overall_mshr_misses::.cpu.inst          739                       # number of overall MSHR misses
system.l2.overall_mshr_misses::.cpu.data        36969                       # number of overall MSHR misses
system.l2.overall_mshr_misses::.l2.prefetcher      2312591                       # number of overall MSHR misses
system.l2.overall_mshr_misses::total          2350299                       # number of overall MSHR misses
system.l2.HardPFReq_mshr_miss_latency::.l2.prefetcher 178218283656                       # number of HardPFReq MSHR miss cycles
system.l2.HardPFReq_mshr_miss_latency::total 178218283656                       # number of HardPFReq MSHR miss cycles
system.l2.UpgradeReq_mshr_miss_latency::.cpu.data        61000                       # number of UpgradeReq MSHR miss cycles
system.l2.UpgradeReq_mshr_miss_latency::total        61000                       # number of UpgradeReq MSHR miss cycles
system.l2.ReadExReq_mshr_miss_latency::.cpu.data   4328858000                       # number of ReadExReq MSHR miss cycles
system.l2.ReadExReq_mshr_miss_latency::total   4328858000                       # number of ReadExReq MSHR miss cycles
system.l2.ReadCleanReq_mshr_miss_latency::.cpu.inst     67519000                       # number of ReadCleanReq MSHR miss cycles
system.l2.ReadCleanReq_mshr_miss_latency::total     67519000                       # number of ReadCleanReq MSHR miss cycles
system.l2.ReadSharedReq_mshr_miss_latency::.cpu.data      9977000                       # number of ReadSharedReq MSHR miss cycles
system.l2.ReadSharedReq_mshr_miss_latency::total      9977000                       # number of ReadSharedReq MSHR miss cycles
system.l2.demand_mshr_miss_latency::.cpu.inst     67519000                       # number of demand (read+write) MSHR miss cycles
system.l2.demand_mshr_miss_latency::.cpu.data   4338835000                       # number of demand (read+write) MSHR miss cycles
system.l2.demand_mshr_miss_latency::total   4406354000                       # number of demand (read+write) MSHR miss cycles
system.l2.overall_mshr_miss_latency::.cpu.inst     67519000                       # number of overall MSHR miss cycles
system.l2.overall_mshr_miss_latency::.cpu.data   4338835000                       # number of overall MSHR miss cycles
system.l2.overall_mshr_miss_latency::.l2.prefetcher 178218283656                       # number of overall MSHR miss cycles
system.l2.overall_mshr_miss_latency::total 182624637656                       # number of overall MSHR miss cycles
system.l2.HardPFReq_mshr_miss_rate::.l2.prefetcher          inf                       # mshr miss rate for HardPFReq accesses
system.l2.HardPFReq_mshr_miss_rate::total          inf                       # mshr miss rate for HardPFReq accesses
system.l2.UpgradeReq_mshr_miss_rate::.cpu.data            1                       # mshr miss rate for UpgradeReq accesses
system.l2.UpgradeReq_mshr_miss_rate::total            1                       # mshr miss rate for UpgradeReq accesses
system.l2.ReadExReq_mshr_miss_rate::.cpu.data     0.015691                       # mshr miss rate for ReadExReq accesses
system.l2.ReadExReq_mshr_miss_rate::total     0.015691                       # mshr miss rate for ReadExReq accesses
system.l2.ReadCleanReq_mshr_miss_rate::.cpu.inst     0.931904                       # mshr miss rate for ReadCleanReq accesses
system.l2.ReadCleanReq_mshr_miss_rate::total     0.931904                       # mshr miss rate for ReadCleanReq accesses
system.l2.ReadSharedReq_mshr_miss_rate::.cpu.data     0.567164                       # mshr miss rate for ReadSharedReq accesses
system.l2.ReadSharedReq_mshr_miss_rate::total     0.567164                       # mshr miss rate for ReadSharedReq accesses
system.l2.demand_mshr_miss_rate::.cpu.inst     0.931904                       # mshr miss rate for demand accesses
system.l2.demand_mshr_miss_rate::.cpu.data     0.015738                       # mshr miss rate for demand accesses
system.l2.demand_mshr_miss_rate::total       0.016048                       # mshr miss rate for demand accesses
system.l2.overall_mshr_miss_rate::.cpu.inst     0.931904                       # mshr miss rate for overall accesses
system.l2.overall_mshr_miss_rate::.cpu.data     0.015738                       # mshr miss rate for overall accesses
system.l2.overall_mshr_miss_rate::.l2.prefetcher          inf                       # mshr miss rate for overall accesses
system.l2.overall_mshr_miss_rate::total      1.000227                       # mshr miss rate for overall accesses
system.l2.HardPFReq_avg_mshr_miss_latency::.l2.prefetcher 77064.333320                       # average HardPFReq mshr miss latency
system.l2.HardPFReq_avg_mshr_miss_latency::total 77064.333320                       # average HardPFReq mshr miss latency
system.l2.UpgradeReq_avg_mshr_miss_latency::.cpu.data        30500                       # average UpgradeReq mshr miss latency
system.l2.UpgradeReq_avg_mshr_miss_latency::total        30500                       # average UpgradeReq mshr miss latency
system.l2.ReadExReq_avg_mshr_miss_latency::.cpu.data 117456.464523                       # average ReadExReq mshr miss latency
system.l2.ReadExReq_avg_mshr_miss_latency::total 117456.464523                       # average ReadExReq mshr miss latency
system.l2.ReadCleanReq_avg_mshr_miss_latency::.cpu.inst 91365.358593                       # average ReadCleanReq mshr miss latency
system.l2.ReadCleanReq_avg_mshr_miss_latency::total 91365.358593                       # average ReadCleanReq mshr miss latency
system.l2.ReadSharedReq_avg_mshr_miss_latency::.cpu.data 87517.543860                       # average ReadSharedReq mshr miss latency
system.l2.ReadSharedReq_avg_mshr_miss_latency::total 87517.543860                       # average ReadSharedReq mshr miss latency
system.l2.demand_avg_mshr_miss_latency::.cpu.inst 91365.358593                       # average overall mshr miss latency
system.l2.demand_avg_mshr_miss_latency::.cpu.data 117364.142931                       # average overall mshr miss latency
system.l2.demand_avg_mshr_miss_latency::total 116854.619709                       # average overall mshr miss latency
system.l2.overall_avg_mshr_miss_latency::.cpu.inst 91365.358593                       # average overall mshr miss latency
system.l2.overall_avg_mshr_miss_latency::.cpu.data 117364.142931                       # average overall mshr miss latency
system.l2.overall_avg_mshr_miss_latency::.l2.prefetcher 77064.333320                       # average overall mshr miss latency
system.l2.overall_avg_mshr_miss_latency::total 77702.725337                       # average overall mshr miss latency
system.l2.replacements                        2316437                       # number of replacements
system.membus.snoop_filter.tot_requests       4666135                       # Total number of requests made to the snoop filter.
system.membus.snoop_filter.hit_single_requests      2316439                       # Number of requests hitting in the snoop filter with a single holder of the requested data.
system.membus.snoop_filter.hit_multi_requests            0                       # Number of requests hitting in the snoop filter with multiple (>1) holders of the requested data.
system.membus.snoop_filter.tot_snoops               0                       # Total number of snoops made to the snoop filter.
system.membus.snoop_filter.hit_single_snoops            0                       # Number of snoops hitting in the snoop filter with a single holder of the requested data.
system.membus.snoop_filter.hit_multi_snoops            0                       # Number of snoops hitting in the snoop filter with multiple (>1) holders of the requested data.
system.membus.pwrStateResidencyTicks::UNDEFINED 100000000000                       # Cumulative time (in ticks) in various power states
system.membus.trans_dist::ReadResp            2312841                       # Transaction distribution
system.membus.trans_dist::WritebackDirty      2316017                       # Transaction distribution
system.membus.trans_dist::CleanEvict              419                       # Transaction distribution
system.membus.trans_dist::UpgradeReq                2                       # Transaction distribution
system.membus.trans_dist::ReadExReq             36855                       # Transaction distribution
system.membus.trans_dist::ReadExResp            36855                       # Transaction distribution
system.membus.trans_dist::ReadCleanReq        2312842                       # Transaction distribution
system.membus.pkt_count_system.l2.mem_side::system.mem_ctrls0.port      3507918                       # Packet count per connected master and slave (bytes)
system.membus.pkt_count_system.l2.mem_side::system.mem_ctrls1.port      3507913                       # Packet count per connected master and slave (bytes)
system.membus.pkt_count_system.l2.mem_side::total      7015831                       # Packet count per connected master and slave (bytes)
system.membus.pkt_count::total                7015831                       # Packet count per connected master and slave (bytes)
system.membus.pkt_size_system.l2.mem_side::system.mem_ctrls0.port    149302976                       # Cumulative packet size per connected master and slave (bytes)
system.membus.pkt_size_system.l2.mem_side::system.mem_ctrls1.port    149302656                       # Cumulative packet size per connected master and slave (bytes)
system.membus.pkt_size_system.l2.mem_side::total    298605632                       # Cumulative packet size per connected master and slave (bytes)
system.membus.pkt_size::total               298605632                       # Cumulative packet size per connected master and slave (bytes)
system.membus.snoops                                0                       # Total snoops (count)
system.membus.snoopTraffic                          0                       # Total snoop traffic (bytes)
system.membus.snoop_fanout::samples           2349699                       # Request fanout histogram
system.membus.snoop_fanout::mean                    0                       # Request fanout histogram
system.membus.snoop_fanout::stdev                   0                       # Request fanout histogram
system.membus.snoop_fanout::underflows              0      0.00%      0.00% # Request fanout histogram
system.membus.snoop_fanout::0                 2349699    100.00%    100.00% # Request fanout histogram
system.membus.snoop_fanout::1                       0      0.00%    100.00% # Request fanout histogram
system.membus.snoop_fanout::overflows               0      0.00%    100.00% # Request fanout histogram
system.membus.snoop_fanout::min_value               0                       # Request fanout histogram
system.membus.snoop_fanout::max_value               0                       # Request fanout histogram
system.membus.snoop_fanout::total             2349699                       # Request fanout histogram
system.membus.reqLayer2.occupancy          8035148647                       # Layer occupancy (ticks)
system.membus.reqLayer2.utilization               8.0                       # Layer utilization (%)
system.membus.reqLayer3.occupancy          8035091048                       # Layer occupancy (ticks)
system.membus.reqLayer3.utilization               8.0                       # Layer utilization (%)
system.membus.respLayer1.occupancy        12668749880                       # Layer occupancy (ticks)
system.membus.respLayer1.utilization             12.7                       # Layer utilization (%)
system.tol2bus.snoop_filter.tot_requests      4698037                       # Total number of requests made to the snoop filter.
system.tol2bus.snoop_filter.hit_single_requests      2348267                       # Number of requests hitting in the snoop filter with a single holder of the requested data.
system.tol2bus.snoop_filter.hit_multi_requests            5                       # Number of requests hitting in the snoop filter with multiple (>1) holders of the requested data.
system.tol2bus.snoop_filter.tot_snoops            604                       # Total number of snoops made to the snoop filter.
system.tol2bus.snoop_filter.hit_single_snoops          604                       # Number of snoops hitting in the snoop filter with a single holder of the requested data.
system.tol2bus.snoop_filter.hit_multi_snoops            0                       # Number of snoops hitting in the snoop filter with multiple (>1) holders of the requested data.
system.tol2bus.pwrStateResidencyTicks::UNDEFINED 100000000000                       # Cumulative time (in ticks) in various power states
system.tol2bus.trans_dist::ReadResp               996                       # Transaction distribution
system.tol2bus.trans_dist::WritebackDirty      4663864                       # Transaction distribution
system.tol2bus.trans_dist::WritebackClean          421                       # Transaction distribution
system.tol2bus.trans_dist::CleanEvict             419                       # Transaction distribution
system.tol2bus.trans_dist::HardPFReq          2439611                       # Transaction distribution
system.tol2bus.trans_dist::UpgradeReq               2                       # Transaction distribution
system.tol2bus.trans_dist::UpgradeResp              2                       # Transaction distribution
system.tol2bus.trans_dist::ReadExReq          2348772                       # Transaction distribution
system.tol2bus.trans_dist::ReadExResp         2348772                       # Transaction distribution
system.tol2bus.trans_dist::ReadCleanReq           795                       # Transaction distribution
system.tol2bus.trans_dist::ReadSharedReq          201                       # Transaction distribution
system.tol2bus.pkt_count_system.cpu.icache.mem_side::system.l2.cpu_side         1907                       # Packet count per connected master and slave (bytes)
system.tol2bus.pkt_count_system.cpu.dcache.mem_side::system.l2.cpu_side      7045898                       # Packet count per connected master and slave (bytes)
system.tol2bus.pkt_count::total               7047805                       # Packet count per connected master and slave (bytes)
system.tol2bus.pkt_size_system.cpu.icache.mem_side::system.l2.cpu_side        71168                       # Cumulative packet size per connected master and slave (bytes)
system.tol2bus.pkt_size_system.cpu.dcache.mem_side::system.l2.cpu_side    300602944                       # Cumulative packet size per connected master and slave (bytes)
system.tol2bus.pkt_size::total              300674112                       # Cumulative packet size per connected master and slave (bytes)
system.tol2bus.snoops                         4756050                       # Total snoops (count)
system.tol2bus.snoopTraffic                 148225280                       # Total snoop traffic (bytes)
system.tol2bus.snoop_fanout::samples          7105818                       # Request fanout histogram
system.tol2bus.snoop_fanout::mean            0.000086                       # Request fanout histogram
system.tol2bus.snoop_fanout::stdev           0.009257                       # Request fanout histogram
system.tol2bus.snoop_fanout::underflows             0      0.00%      0.00% # Request fanout histogram
system.tol2bus.snoop_fanout::0                7105209     99.99%     99.99% # Request fanout histogram
system.tol2bus.snoop_fanout::1                    609      0.01%    100.00% # Request fanout histogram
system.tol2bus.snoop_fanout::2                      0      0.00%    100.00% # Request fanout histogram
system.tol2bus.snoop_fanout::3                      0      0.00%    100.00% # Request fanout histogram
system.tol2bus.snoop_fanout::4                      0      0.00%    100.00% # Request fanout histogram
system.tol2bus.snoop_fanout::overflows              0      0.00%    100.00% # Request fanout histogram
system.tol2bus.snoop_fanout::min_value              0                       # Request fanout histogram
system.tol2bus.snoop_fanout::max_value              1                       # Request fanout histogram
system.tol2bus.snoop_fanout::total            7105818                       # Request fanout histogram
system.tol2bus.reqLayer0.occupancy         4697285500                       # Layer occupancy (ticks)
system.tol2bus.reqLayer0.utilization              4.7                       # Layer utilization (%)
system.tol2bus.respLayer0.occupancy           1192500                       # Layer occupancy (ticks)
system.tol2bus.respLayer0.utilization             0.0                       # Layer utilization (%)
system.tol2bus.respLayer1.occupancy        3523460500                       # Layer occupancy (ticks)
system.tol2bus.respLayer1.utilization             3.5                       # Layer utilization (%)

---------- End Simulation Statistics   ----------
