
---------- Begin Simulation Statistics ----------
sim_seconds                                  0.007476                       # Number of seconds simulated
sim_ticks                                  7476196500                       # Number of ticks simulated
final_tick                                 7476196500                       # Number of ticks from beginning of simulation (restored from checkpoints and never reset)
sim_freq                                 1000000000000                       # Frequency of simulated ticks
host_inst_rate                                  22766                       # Simulator instruction rate (inst/s)
host_op_rate                                    45925                       # Simulator op (including micro ops) rate (op/s)
host_tick_rate                               19741921                       # Simulator tick rate (ticks/s)
host_mem_usage                               33888948                       # Number of bytes of host memory used
host_seconds                                   378.70                       # Real time elapsed on the host
sim_insts                                     8621299                       # Number of instructions simulated
sim_ops                                      17391580                       # Number of ops (including micro ops) simulated
system.voltage_domain.voltage                       1                       # Voltage in Volts
system.clk_domain.clock                          1000                       # Clock period in ticks
system.mem_ctrls0.pwrStateResidencyTicks::UNDEFINED   7476196500                       # Cumulative time (in ticks) in various power states
system.mem_ctrls0.bytes_read::.cpu.inst        225728                       # Number of bytes read from this memory
system.mem_ctrls0.bytes_read::.cpu.data        416960                       # Number of bytes read from this memory
system.mem_ctrls0.bytes_read::.l2.prefetcher       597248                       # Number of bytes read from this memory
system.mem_ctrls0.bytes_read::total           1239936                       # Number of bytes read from this memory
system.mem_ctrls0.bytes_inst_read::.cpu.inst       225728                       # Number of instructions bytes read from this memory
system.mem_ctrls0.bytes_inst_read::total       225728                       # Number of instructions bytes read from this memory
system.mem_ctrls0.bytes_written::.writebacks       126976                       # Number of bytes written to this memory
system.mem_ctrls0.bytes_written::total         126976                       # Number of bytes written to this memory
system.mem_ctrls0.num_reads::.cpu.inst           3527                       # Number of read requests responded to by this memory
system.mem_ctrls0.num_reads::.cpu.data           6515                       # Number of read requests responded to by this memory
system.mem_ctrls0.num_reads::.l2.prefetcher         9332                       # Number of read requests responded to by this memory
system.mem_ctrls0.num_reads::total              19374                       # Number of read requests responded to by this memory
system.mem_ctrls0.num_writes::.writebacks         1984                       # Number of write requests responded to by this memory
system.mem_ctrls0.num_writes::total              1984                       # Number of write requests responded to by this memory
system.mem_ctrls0.bw_read::.cpu.inst         30192893                       # Total read bandwidth from this memory (bytes/s)
system.mem_ctrls0.bw_read::.cpu.data         55771675                       # Total read bandwidth from this memory (bytes/s)
system.mem_ctrls0.bw_read::.l2.prefetcher     79886611                       # Total read bandwidth from this memory (bytes/s)
system.mem_ctrls0.bw_read::total            165851178                       # Total read bandwidth from this memory (bytes/s)
system.mem_ctrls0.bw_inst_read::.cpu.inst     30192893                       # Instruction read bandwidth from this memory (bytes/s)
system.mem_ctrls0.bw_inst_read::total        30192893                       # Instruction read bandwidth from this memory (bytes/s)
system.mem_ctrls0.bw_write::.writebacks      16984037                       # Write bandwidth from this memory (bytes/s)
system.mem_ctrls0.bw_write::total            16984037                       # Write bandwidth from this memory (bytes/s)
system.mem_ctrls0.bw_total::.writebacks      16984037                       # Total bandwidth to/from this memory (bytes/s)
system.mem_ctrls0.bw_total::.cpu.inst        30192893                       # Total bandwidth to/from this memory (bytes/s)
system.mem_ctrls0.bw_total::.cpu.data        55771675                       # Total bandwidth to/from this memory (bytes/s)
system.mem_ctrls0.bw_total::.l2.prefetcher     79886611                       # Total bandwidth to/from this memory (bytes/s)
system.mem_ctrls0.bw_total::total           182835216                       # Total bandwidth to/from this memory (bytes/s)
system.mem_ctrls0.avgPriority_.writebacks::samples      1984.00                       # Average QoS priority value for accepted requests
system.mem_ctrls0.avgPriority_.cpu.inst::samples      3527.00                       # Average QoS priority value for accepted requests
system.mem_ctrls0.avgPriority_.cpu.data::samples      6508.00                       # Average QoS priority value for accepted requests
system.mem_ctrls0.avgPriority_.l2.prefetcher::samples      9332.00                       # Average QoS priority value for accepted requests
system.mem_ctrls0.priorityMinLatency     0.000000017492                       # per QoS priority minimum request to response latency (s)
system.mem_ctrls0.priorityMaxLatency     0.006366728812                       # per QoS priority maximum request to response latency (s)
system.mem_ctrls0.numReadWriteTurnArounds          111                       # Number of turnarounds from READ to WRITE
system.mem_ctrls0.numWriteReadTurnArounds          111                       # Number of turnarounds from WRITE to READ
system.mem_ctrls0.numStayReadState              41756                       # Number of times bus staying in READ state
system.mem_ctrls0.numStayWriteState              1855                       # Number of times bus staying in WRITE state
system.mem_ctrls0.readReqs                      19374                       # Number of read requests accepted
system.mem_ctrls0.writeReqs                      1984                       # Number of write requests accepted
system.mem_ctrls0.readBursts                    19374                       # Number of DRAM read bursts, including those serviced by the write queue
system.mem_ctrls0.writeBursts                    1984                       # Number of DRAM write bursts, including those merged in the write queue
system.mem_ctrls0.bytesReadDRAM               1239488                       # Total number of bytes read from DRAM
system.mem_ctrls0.bytesReadWrQ                    448                       # Total number of bytes read from write queue
system.mem_ctrls0.bytesWritten                 123328                       # Total number of bytes written to DRAM
system.mem_ctrls0.bytesReadSys                1239936                       # Total read bytes from the system interface side
system.mem_ctrls0.bytesWrittenSys              126976                       # Total written bytes from the system interface side
system.mem_ctrls0.servicedByWrQ                     7                       # Number of DRAM read bursts serviced by the write queue
system.mem_ctrls0.mergedWrBursts                    0                       # Number of DRAM write bursts merged with an existing one
system.mem_ctrls0.neitherReadNorWriteReqs            0                       # Number of requests that are neither read nor write
system.mem_ctrls0.perBankRdBursts::0              575                       # Per bank write bursts
system.mem_ctrls0.perBankRdBursts::1              443                       # Per bank write bursts
system.mem_ctrls0.perBankRdBursts::2              389                       # Per bank write bursts
system.mem_ctrls0.perBankRdBursts::3              539                       # Per bank write bursts
system.mem_ctrls0.perBankRdBursts::4              577                       # Per bank write bursts
system.mem_ctrls0.perBankRdBursts::5              625                       # Per bank write bursts
system.mem_ctrls0.perBankRdBursts::6              607                       # Per bank write bursts
system.mem_ctrls0.perBankRdBursts::7              736                       # Per bank write bursts
system.mem_ctrls0.perBankRdBursts::8              583                       # Per bank write bursts
system.mem_ctrls0.perBankRdBursts::9              515                       # Per bank write bursts
system.mem_ctrls0.perBankRdBursts::10             662                       # Per bank write bursts
system.mem_ctrls0.perBankRdBursts::11             615                       # Per bank write bursts
system.mem_ctrls0.perBankRdBursts::12             547                       # Per bank write bursts
system.mem_ctrls0.perBankRdBursts::13             505                       # Per bank write bursts
system.mem_ctrls0.perBankRdBursts::14             539                       # Per bank write bursts
system.mem_ctrls0.perBankRdBursts::15             547                       # Per bank write bursts
system.mem_ctrls0.perBankRdBursts::16             564                       # Per bank write bursts
system.mem_ctrls0.perBankRdBursts::17             576                       # Per bank write bursts
system.mem_ctrls0.perBankRdBursts::18             685                       # Per bank write bursts
system.mem_ctrls0.perBankRdBursts::19             828                       # Per bank write bursts
system.mem_ctrls0.perBankRdBursts::20             662                       # Per bank write bursts
system.mem_ctrls0.perBankRdBursts::21             882                       # Per bank write bursts
system.mem_ctrls0.perBankRdBursts::22             889                       # Per bank write bursts
system.mem_ctrls0.perBankRdBursts::23            1034                       # Per bank write bursts
system.mem_ctrls0.perBankRdBursts::24             783                       # Per bank write bursts
system.mem_ctrls0.perBankRdBursts::25             699                       # Per bank write bursts
system.mem_ctrls0.perBankRdBursts::26             623                       # Per bank write bursts
system.mem_ctrls0.perBankRdBursts::27             417                       # Per bank write bursts
system.mem_ctrls0.perBankRdBursts::28             406                       # Per bank write bursts
system.mem_ctrls0.perBankRdBursts::29             478                       # Per bank write bursts
system.mem_ctrls0.perBankRdBursts::30             355                       # Per bank write bursts
system.mem_ctrls0.perBankRdBursts::31             482                       # Per bank write bursts
system.mem_ctrls0.perBankWrBursts::0               25                       # Per bank write bursts
system.mem_ctrls0.perBankWrBursts::1               13                       # Per bank write bursts
system.mem_ctrls0.perBankWrBursts::2               10                       # Per bank write bursts
system.mem_ctrls0.perBankWrBursts::3               66                       # Per bank write bursts
system.mem_ctrls0.perBankWrBursts::4               58                       # Per bank write bursts
system.mem_ctrls0.perBankWrBursts::5              108                       # Per bank write bursts
system.mem_ctrls0.perBankWrBursts::6              101                       # Per bank write bursts
system.mem_ctrls0.perBankWrBursts::7              199                       # Per bank write bursts
system.mem_ctrls0.perBankWrBursts::8              144                       # Per bank write bursts
system.mem_ctrls0.perBankWrBursts::9               55                       # Per bank write bursts
system.mem_ctrls0.perBankWrBursts::10              92                       # Per bank write bursts
system.mem_ctrls0.perBankWrBursts::11               4                       # Per bank write bursts
system.mem_ctrls0.perBankWrBursts::12               4                       # Per bank write bursts
system.mem_ctrls0.perBankWrBursts::13               1                       # Per bank write bursts
system.mem_ctrls0.perBankWrBursts::14               0                       # Per bank write bursts
system.mem_ctrls0.perBankWrBursts::15               7                       # Per bank write bursts
system.mem_ctrls0.perBankWrBursts::16              36                       # Per bank write bursts
system.mem_ctrls0.perBankWrBursts::17              14                       # Per bank write bursts
system.mem_ctrls0.perBankWrBursts::18              50                       # Per bank write bursts
system.mem_ctrls0.perBankWrBursts::19              91                       # Per bank write bursts
system.mem_ctrls0.perBankWrBursts::20              87                       # Per bank write bursts
system.mem_ctrls0.perBankWrBursts::21             131                       # Per bank write bursts
system.mem_ctrls0.perBankWrBursts::22             173                       # Per bank write bursts
system.mem_ctrls0.perBankWrBursts::23             257                       # Per bank write bursts
system.mem_ctrls0.perBankWrBursts::24              41                       # Per bank write bursts
system.mem_ctrls0.perBankWrBursts::25              39                       # Per bank write bursts
system.mem_ctrls0.perBankWrBursts::26              45                       # Per bank write bursts
system.mem_ctrls0.perBankWrBursts::27              20                       # Per bank write bursts
system.mem_ctrls0.perBankWrBursts::28              15                       # Per bank write bursts
system.mem_ctrls0.perBankWrBursts::29               5                       # Per bank write bursts
system.mem_ctrls0.perBankWrBursts::30               0                       # Per bank write bursts
system.mem_ctrls0.perBankWrBursts::31              36                       # Per bank write bursts
system.mem_ctrls0.numRdRetry                        0                       # Number of times read queue was full causing retry
system.mem_ctrls0.numWrRetry                        0                       # Number of times write queue was full causing retry
system.mem_ctrls0.totGap                   7476139000                       # Total gap between requests
system.mem_ctrls0.readPktSize::0                    0                       # Read request sizes (log2)
system.mem_ctrls0.readPktSize::1                    0                       # Read request sizes (log2)
system.mem_ctrls0.readPktSize::2                    0                       # Read request sizes (log2)
system.mem_ctrls0.readPktSize::3                    0                       # Read request sizes (log2)
system.mem_ctrls0.readPktSize::4                    0                       # Read request sizes (log2)
system.mem_ctrls0.readPktSize::5                    0                       # Read request sizes (log2)
system.mem_ctrls0.readPktSize::6                19374                       # Read request sizes (log2)
system.mem_ctrls0.writePktSize::0                   0                       # Write request sizes (log2)
system.mem_ctrls0.writePktSize::1                   0                       # Write request sizes (log2)
system.mem_ctrls0.writePktSize::2                   0                       # Write request sizes (log2)
system.mem_ctrls0.writePktSize::3                   0                       # Write request sizes (log2)
system.mem_ctrls0.writePktSize::4                   0                       # Write request sizes (log2)
system.mem_ctrls0.writePktSize::5                   0                       # Write request sizes (log2)
system.mem_ctrls0.writePktSize::6                1984                       # Write request sizes (log2)
system.mem_ctrls0.rdQLenPdf::0                  15394                       # What read queue length does an incoming req see
system.mem_ctrls0.rdQLenPdf::1                   1696                       # What read queue length does an incoming req see
system.mem_ctrls0.rdQLenPdf::2                    830                       # What read queue length does an incoming req see
system.mem_ctrls0.rdQLenPdf::3                    626                       # What read queue length does an incoming req see
system.mem_ctrls0.rdQLenPdf::4                    398                       # What read queue length does an incoming req see
system.mem_ctrls0.rdQLenPdf::5                    118                       # What read queue length does an incoming req see
system.mem_ctrls0.rdQLenPdf::6                    107                       # What read queue length does an incoming req see
system.mem_ctrls0.rdQLenPdf::7                    101                       # What read queue length does an incoming req see
system.mem_ctrls0.rdQLenPdf::8                     97                       # What read queue length does an incoming req see
system.mem_ctrls0.rdQLenPdf::9                      0                       # What read queue length does an incoming req see
system.mem_ctrls0.rdQLenPdf::10                     0                       # What read queue length does an incoming req see
system.mem_ctrls0.rdQLenPdf::11                     0                       # What read queue length does an incoming req see
system.mem_ctrls0.rdQLenPdf::12                     0                       # What read queue length does an incoming req see
system.mem_ctrls0.rdQLenPdf::13                     0                       # What read queue length does an incoming req see
system.mem_ctrls0.rdQLenPdf::14                     0                       # What read queue length does an incoming req see
system.mem_ctrls0.rdQLenPdf::15                     0                       # What read queue length does an incoming req see
system.mem_ctrls0.rdQLenPdf::16                     0                       # What read queue length does an incoming req see
system.mem_ctrls0.rdQLenPdf::17                     0                       # What read queue length does an incoming req see
system.mem_ctrls0.rdQLenPdf::18                     0                       # What read queue length does an incoming req see
system.mem_ctrls0.rdQLenPdf::19                     0                       # What read queue length does an incoming req see
system.mem_ctrls0.rdQLenPdf::20                     0                       # What read queue length does an incoming req see
system.mem_ctrls0.rdQLenPdf::21                     0                       # What read queue length does an incoming req see
system.mem_ctrls0.rdQLenPdf::22                     0                       # What read queue length does an incoming req see
system.mem_ctrls0.rdQLenPdf::23                     0                       # What read queue length does an incoming req see
system.mem_ctrls0.rdQLenPdf::24                     0                       # What read queue length does an incoming req see
system.mem_ctrls0.rdQLenPdf::25                     0                       # What read queue length does an incoming req see
system.mem_ctrls0.rdQLenPdf::26                     0                       # What read queue length does an incoming req see
system.mem_ctrls0.rdQLenPdf::27                     0                       # What read queue length does an incoming req see
system.mem_ctrls0.rdQLenPdf::28                     0                       # What read queue length does an incoming req see
system.mem_ctrls0.rdQLenPdf::29                     0                       # What read queue length does an incoming req see
system.mem_ctrls0.rdQLenPdf::30                     0                       # What read queue length does an incoming req see
system.mem_ctrls0.rdQLenPdf::31                     0                       # What read queue length does an incoming req see
system.mem_ctrls0.rdQLenPdf::32                     0                       # What read queue length does an incoming req see
system.mem_ctrls0.rdQLenPdf::33                     0                       # What read queue length does an incoming req see
system.mem_ctrls0.rdQLenPdf::34                     0                       # What read queue length does an incoming req see
system.mem_ctrls0.rdQLenPdf::35                     0                       # What read queue length does an incoming req see
system.mem_ctrls0.rdQLenPdf::36                     0                       # What read queue length does an incoming req see
system.mem_ctrls0.rdQLenPdf::37                     0                       # What read queue length does an incoming req see
system.mem_ctrls0.rdQLenPdf::38                     0                       # What read queue length does an incoming req see
system.mem_ctrls0.rdQLenPdf::39                     0                       # What read queue length does an incoming req see
system.mem_ctrls0.rdQLenPdf::40                     0                       # What read queue length does an incoming req see
system.mem_ctrls0.rdQLenPdf::41                     0                       # What read queue length does an incoming req see
system.mem_ctrls0.rdQLenPdf::42                     0                       # What read queue length does an incoming req see
system.mem_ctrls0.rdQLenPdf::43                     0                       # What read queue length does an incoming req see
system.mem_ctrls0.rdQLenPdf::44                     0                       # What read queue length does an incoming req see
system.mem_ctrls0.rdQLenPdf::45                     0                       # What read queue length does an incoming req see
system.mem_ctrls0.rdQLenPdf::46                     0                       # What read queue length does an incoming req see
system.mem_ctrls0.rdQLenPdf::47                     0                       # What read queue length does an incoming req see
system.mem_ctrls0.rdQLenPdf::48                     0                       # What read queue length does an incoming req see
system.mem_ctrls0.rdQLenPdf::49                     0                       # What read queue length does an incoming req see
system.mem_ctrls0.rdQLenPdf::50                     0                       # What read queue length does an incoming req see
system.mem_ctrls0.rdQLenPdf::51                     0                       # What read queue length does an incoming req see
system.mem_ctrls0.rdQLenPdf::52                     0                       # What read queue length does an incoming req see
system.mem_ctrls0.rdQLenPdf::53                     0                       # What read queue length does an incoming req see
system.mem_ctrls0.rdQLenPdf::54                     0                       # What read queue length does an incoming req see
system.mem_ctrls0.rdQLenPdf::55                     0                       # What read queue length does an incoming req see
system.mem_ctrls0.rdQLenPdf::56                     0                       # What read queue length does an incoming req see
system.mem_ctrls0.rdQLenPdf::57                     0                       # What read queue length does an incoming req see
system.mem_ctrls0.rdQLenPdf::58                     0                       # What read queue length does an incoming req see
system.mem_ctrls0.rdQLenPdf::59                     0                       # What read queue length does an incoming req see
system.mem_ctrls0.rdQLenPdf::60                     0                       # What read queue length does an incoming req see
system.mem_ctrls0.rdQLenPdf::61                     0                       # What read queue length does an incoming req see
system.mem_ctrls0.rdQLenPdf::62                     0                       # What read queue length does an incoming req see
system.mem_ctrls0.rdQLenPdf::63                     0                       # What read queue length does an incoming req see
system.mem_ctrls0.wrQLenPdf::0                      1                       # What write queue length does an incoming req see
system.mem_ctrls0.wrQLenPdf::1                      1                       # What write queue length does an incoming req see
system.mem_ctrls0.wrQLenPdf::2                      1                       # What write queue length does an incoming req see
system.mem_ctrls0.wrQLenPdf::3                      1                       # What write queue length does an incoming req see
system.mem_ctrls0.wrQLenPdf::4                      1                       # What write queue length does an incoming req see
system.mem_ctrls0.wrQLenPdf::5                      1                       # What write queue length does an incoming req see
system.mem_ctrls0.wrQLenPdf::6                      1                       # What write queue length does an incoming req see
system.mem_ctrls0.wrQLenPdf::7                      1                       # What write queue length does an incoming req see
system.mem_ctrls0.wrQLenPdf::8                      1                       # What write queue length does an incoming req see
system.mem_ctrls0.wrQLenPdf::9                      1                       # What write queue length does an incoming req see
system.mem_ctrls0.wrQLenPdf::10                     1                       # What write queue length does an incoming req see
system.mem_ctrls0.wrQLenPdf::11                     1                       # What write queue length does an incoming req see
system.mem_ctrls0.wrQLenPdf::12                     1                       # What write queue length does an incoming req see
system.mem_ctrls0.wrQLenPdf::13                     1                       # What write queue length does an incoming req see
system.mem_ctrls0.wrQLenPdf::14                     1                       # What write queue length does an incoming req see
system.mem_ctrls0.wrQLenPdf::15                     1                       # What write queue length does an incoming req see
system.mem_ctrls0.wrQLenPdf::16                     1                       # What write queue length does an incoming req see
system.mem_ctrls0.wrQLenPdf::17                     1                       # What write queue length does an incoming req see
system.mem_ctrls0.wrQLenPdf::18                     1                       # What write queue length does an incoming req see
system.mem_ctrls0.wrQLenPdf::19                     1                       # What write queue length does an incoming req see
system.mem_ctrls0.wrQLenPdf::20                     1                       # What write queue length does an incoming req see
system.mem_ctrls0.wrQLenPdf::21                     1                       # What write queue length does an incoming req see
system.mem_ctrls0.wrQLenPdf::22                     1                       # What write queue length does an incoming req see
system.mem_ctrls0.wrQLenPdf::23                     1                       # What write queue length does an incoming req see
system.mem_ctrls0.wrQLenPdf::24                     1                       # What write queue length does an incoming req see
system.mem_ctrls0.wrQLenPdf::25                     1                       # What write queue length does an incoming req see
system.mem_ctrls0.wrQLenPdf::26                     1                       # What write queue length does an incoming req see
system.mem_ctrls0.wrQLenPdf::27                     1                       # What write queue length does an incoming req see
system.mem_ctrls0.wrQLenPdf::28                     1                       # What write queue length does an incoming req see
system.mem_ctrls0.wrQLenPdf::29                     1                       # What write queue length does an incoming req see
system.mem_ctrls0.wrQLenPdf::30                     1                       # What write queue length does an incoming req see
system.mem_ctrls0.wrQLenPdf::31                     1                       # What write queue length does an incoming req see
system.mem_ctrls0.wrQLenPdf::32                     1                       # What write queue length does an incoming req see
system.mem_ctrls0.wrQLenPdf::33                     1                       # What write queue length does an incoming req see
system.mem_ctrls0.wrQLenPdf::34                     1                       # What write queue length does an incoming req see
system.mem_ctrls0.wrQLenPdf::35                     1                       # What write queue length does an incoming req see
system.mem_ctrls0.wrQLenPdf::36                     1                       # What write queue length does an incoming req see
system.mem_ctrls0.wrQLenPdf::37                     1                       # What write queue length does an incoming req see
system.mem_ctrls0.wrQLenPdf::38                     1                       # What write queue length does an incoming req see
system.mem_ctrls0.wrQLenPdf::39                     1                       # What write queue length does an incoming req see
system.mem_ctrls0.wrQLenPdf::40                     1                       # What write queue length does an incoming req see
system.mem_ctrls0.wrQLenPdf::41                     1                       # What write queue length does an incoming req see
system.mem_ctrls0.wrQLenPdf::42                     1                       # What write queue length does an incoming req see
system.mem_ctrls0.wrQLenPdf::43                     1                       # What write queue length does an incoming req see
system.mem_ctrls0.wrQLenPdf::44                     1                       # What write queue length does an incoming req see
system.mem_ctrls0.wrQLenPdf::45                     1                       # What write queue length does an incoming req see
system.mem_ctrls0.wrQLenPdf::46                     1                       # What write queue length does an incoming req see
system.mem_ctrls0.wrQLenPdf::47                    64                       # What write queue length does an incoming req see
system.mem_ctrls0.wrQLenPdf::48                    71                       # What write queue length does an incoming req see
system.mem_ctrls0.wrQLenPdf::49                   106                       # What write queue length does an incoming req see
system.mem_ctrls0.wrQLenPdf::50                   113                       # What write queue length does an incoming req see
system.mem_ctrls0.wrQLenPdf::51                   116                       # What write queue length does an incoming req see
system.mem_ctrls0.wrQLenPdf::52                   112                       # What write queue length does an incoming req see
system.mem_ctrls0.wrQLenPdf::53                   113                       # What write queue length does an incoming req see
system.mem_ctrls0.wrQLenPdf::54                   115                       # What write queue length does an incoming req see
system.mem_ctrls0.wrQLenPdf::55                   115                       # What write queue length does an incoming req see
system.mem_ctrls0.wrQLenPdf::56                   115                       # What write queue length does an incoming req see
system.mem_ctrls0.wrQLenPdf::57                   111                       # What write queue length does an incoming req see
system.mem_ctrls0.wrQLenPdf::58                   113                       # What write queue length does an incoming req see
system.mem_ctrls0.wrQLenPdf::59                   114                       # What write queue length does an incoming req see
system.mem_ctrls0.wrQLenPdf::60                   112                       # What write queue length does an incoming req see
system.mem_ctrls0.wrQLenPdf::61                   112                       # What write queue length does an incoming req see
system.mem_ctrls0.wrQLenPdf::62                   112                       # What write queue length does an incoming req see
system.mem_ctrls0.wrQLenPdf::63                   111                       # What write queue length does an incoming req see
system.mem_ctrls0.wrQLenPdf::64                   111                       # What write queue length does an incoming req see
system.mem_ctrls0.wrQLenPdf::65                     1                       # What write queue length does an incoming req see
system.mem_ctrls0.wrQLenPdf::66                     0                       # What write queue length does an incoming req see
system.mem_ctrls0.wrQLenPdf::67                     0                       # What write queue length does an incoming req see
system.mem_ctrls0.wrQLenPdf::68                     0                       # What write queue length does an incoming req see
system.mem_ctrls0.wrQLenPdf::69                     0                       # What write queue length does an incoming req see
system.mem_ctrls0.wrQLenPdf::70                     0                       # What write queue length does an incoming req see
system.mem_ctrls0.wrQLenPdf::71                     0                       # What write queue length does an incoming req see
system.mem_ctrls0.wrQLenPdf::72                     0                       # What write queue length does an incoming req see
system.mem_ctrls0.wrQLenPdf::73                     0                       # What write queue length does an incoming req see
system.mem_ctrls0.wrQLenPdf::74                     0                       # What write queue length does an incoming req see
system.mem_ctrls0.wrQLenPdf::75                     0                       # What write queue length does an incoming req see
system.mem_ctrls0.wrQLenPdf::76                     0                       # What write queue length does an incoming req see
system.mem_ctrls0.wrQLenPdf::77                     0                       # What write queue length does an incoming req see
system.mem_ctrls0.wrQLenPdf::78                     0                       # What write queue length does an incoming req see
system.mem_ctrls0.wrQLenPdf::79                     0                       # What write queue length does an incoming req see
system.mem_ctrls0.wrQLenPdf::80                     0                       # What write queue length does an incoming req see
system.mem_ctrls0.wrQLenPdf::81                     0                       # What write queue length does an incoming req see
system.mem_ctrls0.wrQLenPdf::82                     0                       # What write queue length does an incoming req see
system.mem_ctrls0.wrQLenPdf::83                     0                       # What write queue length does an incoming req see
system.mem_ctrls0.wrQLenPdf::84                     0                       # What write queue length does an incoming req see
system.mem_ctrls0.wrQLenPdf::85                     0                       # What write queue length does an incoming req see
system.mem_ctrls0.wrQLenPdf::86                     0                       # What write queue length does an incoming req see
system.mem_ctrls0.wrQLenPdf::87                     0                       # What write queue length does an incoming req see
system.mem_ctrls0.wrQLenPdf::88                     0                       # What write queue length does an incoming req see
system.mem_ctrls0.wrQLenPdf::89                     0                       # What write queue length does an incoming req see
system.mem_ctrls0.wrQLenPdf::90                     0                       # What write queue length does an incoming req see
system.mem_ctrls0.wrQLenPdf::91                     0                       # What write queue length does an incoming req see
system.mem_ctrls0.wrQLenPdf::92                     0                       # What write queue length does an incoming req see
system.mem_ctrls0.wrQLenPdf::93                     0                       # What write queue length does an incoming req see
system.mem_ctrls0.wrQLenPdf::94                     0                       # What write queue length does an incoming req see
system.mem_ctrls0.wrQLenPdf::95                     0                       # What write queue length does an incoming req see
system.mem_ctrls0.wrQLenPdf::96                     0                       # What write queue length does an incoming req see
system.mem_ctrls0.wrQLenPdf::97                     0                       # What write queue length does an incoming req see
system.mem_ctrls0.wrQLenPdf::98                     0                       # What write queue length does an incoming req see
system.mem_ctrls0.wrQLenPdf::99                     0                       # What write queue length does an incoming req see
system.mem_ctrls0.wrQLenPdf::100                    0                       # What write queue length does an incoming req see
system.mem_ctrls0.wrQLenPdf::101                    0                       # What write queue length does an incoming req see
system.mem_ctrls0.wrQLenPdf::102                    0                       # What write queue length does an incoming req see
system.mem_ctrls0.wrQLenPdf::103                    0                       # What write queue length does an incoming req see
system.mem_ctrls0.wrQLenPdf::104                    0                       # What write queue length does an incoming req see
system.mem_ctrls0.wrQLenPdf::105                    0                       # What write queue length does an incoming req see
system.mem_ctrls0.wrQLenPdf::106                    0                       # What write queue length does an incoming req see
system.mem_ctrls0.wrQLenPdf::107                    0                       # What write queue length does an incoming req see
system.mem_ctrls0.wrQLenPdf::108                    0                       # What write queue length does an incoming req see
system.mem_ctrls0.wrQLenPdf::109                    0                       # What write queue length does an incoming req see
system.mem_ctrls0.wrQLenPdf::110                    0                       # What write queue length does an incoming req see
system.mem_ctrls0.wrQLenPdf::111                    0                       # What write queue length does an incoming req see
system.mem_ctrls0.wrQLenPdf::112                    0                       # What write queue length does an incoming req see
system.mem_ctrls0.wrQLenPdf::113                    0                       # What write queue length does an incoming req see
system.mem_ctrls0.wrQLenPdf::114                    0                       # What write queue length does an incoming req see
system.mem_ctrls0.wrQLenPdf::115                    0                       # What write queue length does an incoming req see
system.mem_ctrls0.wrQLenPdf::116                    0                       # What write queue length does an incoming req see
system.mem_ctrls0.wrQLenPdf::117                    0                       # What write queue length does an incoming req see
system.mem_ctrls0.wrQLenPdf::118                    0                       # What write queue length does an incoming req see
system.mem_ctrls0.wrQLenPdf::119                    0                       # What write queue length does an incoming req see
system.mem_ctrls0.wrQLenPdf::120                    0                       # What write queue length does an incoming req see
system.mem_ctrls0.wrQLenPdf::121                    0                       # What write queue length does an incoming req see
system.mem_ctrls0.wrQLenPdf::122                    0                       # What write queue length does an incoming req see
system.mem_ctrls0.wrQLenPdf::123                    0                       # What write queue length does an incoming req see
system.mem_ctrls0.wrQLenPdf::124                    0                       # What write queue length does an incoming req see
system.mem_ctrls0.wrQLenPdf::125                    0                       # What write queue length does an incoming req see
system.mem_ctrls0.wrQLenPdf::126                    0                       # What write queue length does an incoming req see
system.mem_ctrls0.wrQLenPdf::127                    0                       # What write queue length does an incoming req see
system.mem_ctrls0.bytesPerActivate::samples         5449                       # Bytes accessed per row activation
system.mem_ctrls0.bytesPerActivate::mean   249.669297                       # Bytes accessed per row activation
system.mem_ctrls0.bytesPerActivate::gmean   150.315799                       # Bytes accessed per row activation
system.mem_ctrls0.bytesPerActivate::stdev   289.803047                       # Bytes accessed per row activation
system.mem_ctrls0.bytesPerActivate::0-127         2372     43.53%     43.53% # Bytes accessed per row activation
system.mem_ctrls0.bytesPerActivate::128-255         1419     26.04%     69.57% # Bytes accessed per row activation
system.mem_ctrls0.bytesPerActivate::256-383          512      9.40%     78.97% # Bytes accessed per row activation
system.mem_ctrls0.bytesPerActivate::384-511          285      5.23%     84.20% # Bytes accessed per row activation
system.mem_ctrls0.bytesPerActivate::512-639          147      2.70%     86.90% # Bytes accessed per row activation
system.mem_ctrls0.bytesPerActivate::640-767          117      2.15%     89.04% # Bytes accessed per row activation
system.mem_ctrls0.bytesPerActivate::768-895           89      1.63%     90.68% # Bytes accessed per row activation
system.mem_ctrls0.bytesPerActivate::896-1023           81      1.49%     92.16% # Bytes accessed per row activation
system.mem_ctrls0.bytesPerActivate::1024-1151          427      7.84%    100.00% # Bytes accessed per row activation
system.mem_ctrls0.bytesPerActivate::total         5449                       # Bytes accessed per row activation
system.mem_ctrls0.rdPerTurnAround::samples          111                       # Reads before turning the bus around for writes
system.mem_ctrls0.rdPerTurnAround::mean    174.144144                       # Reads before turning the bus around for writes
system.mem_ctrls0.rdPerTurnAround::gmean    48.950293                       # Reads before turning the bus around for writes
system.mem_ctrls0.rdPerTurnAround::stdev  1099.254548                       # Reads before turning the bus around for writes
system.mem_ctrls0.rdPerTurnAround::0-255          104     93.69%     93.69% # Reads before turning the bus around for writes
system.mem_ctrls0.rdPerTurnAround::256-511            5      4.50%     98.20% # Reads before turning the bus around for writes
system.mem_ctrls0.rdPerTurnAround::512-767            1      0.90%     99.10% # Reads before turning the bus around for writes
system.mem_ctrls0.rdPerTurnAround::11520-11775            1      0.90%    100.00% # Reads before turning the bus around for writes
system.mem_ctrls0.rdPerTurnAround::total          111                       # Reads before turning the bus around for writes
system.mem_ctrls0.wrPerTurnAround::samples          111                       # Writes before turning the bus around for reads
system.mem_ctrls0.wrPerTurnAround::mean     17.360360                       # Writes before turning the bus around for reads
system.mem_ctrls0.wrPerTurnAround::gmean    17.321261                       # Writes before turning the bus around for reads
system.mem_ctrls0.wrPerTurnAround::stdev     1.173904                       # Writes before turning the bus around for reads
system.mem_ctrls0.wrPerTurnAround::16              41     36.94%     36.94% # Writes before turning the bus around for reads
system.mem_ctrls0.wrPerTurnAround::17               6      5.41%     42.34% # Writes before turning the bus around for reads
system.mem_ctrls0.wrPerTurnAround::18              51     45.95%     88.29% # Writes before turning the bus around for reads
system.mem_ctrls0.wrPerTurnAround::19              10      9.01%     97.30% # Writes before turning the bus around for reads
system.mem_ctrls0.wrPerTurnAround::20               2      1.80%     99.10% # Writes before turning the bus around for reads
system.mem_ctrls0.wrPerTurnAround::21               1      0.90%    100.00% # Writes before turning the bus around for reads
system.mem_ctrls0.wrPerTurnAround::total          111                       # Writes before turning the bus around for reads
system.mem_ctrls0.masterReadBytes::.cpu.inst       225728                       # Per-master bytes read from memory
system.mem_ctrls0.masterReadBytes::.cpu.data       416512                       # Per-master bytes read from memory
system.mem_ctrls0.masterReadBytes::.l2.prefetcher       597248                       # Per-master bytes read from memory
system.mem_ctrls0.masterWriteBytes::.writebacks       123328                       # Per-master bytes write to memory
system.mem_ctrls0.masterReadRate::.cpu.inst 30192892.870057657361                       # Per-master bytes read from memory rate (Bytes/sec)
system.mem_ctrls0.masterReadRate::.cpu.data 55711751.289576195180                       # Per-master bytes read from memory rate (Bytes/sec)
system.mem_ctrls0.masterReadRate::.l2.prefetcher 79886610.791998311877                       # Per-master bytes read from memory rate (Bytes/sec)
system.mem_ctrls0.masterWriteRate::.writebacks 16496088.619393564761                       # Per-master bytes write to memory rate (Bytes/sec)
system.mem_ctrls0.masterReadAccesses::.cpu.inst         3527                       # Per-master read serviced memory accesses
system.mem_ctrls0.masterReadAccesses::.cpu.data         6515                       # Per-master read serviced memory accesses
system.mem_ctrls0.masterReadAccesses::.l2.prefetcher         9332                       # Per-master read serviced memory accesses
system.mem_ctrls0.masterWriteAccesses::.writebacks         1984                       # Per-master write serviced memory accesses
system.mem_ctrls0.masterReadTotalLat::.cpu.inst    189743019                       # Per-master read total memory access latency
system.mem_ctrls0.masterReadTotalLat::.cpu.data    300835347                       # Per-master read total memory access latency
system.mem_ctrls0.masterReadTotalLat::.l2.prefetcher    380412214                       # Per-master read total memory access latency
system.mem_ctrls0.masterWriteTotalLat::.writebacks 240808634431                       # Per-master write total memory access latency
system.mem_ctrls0.masterReadAvgLat::.cpu.inst     53797.28                       # Per-master read average memory access latency
system.mem_ctrls0.masterReadAvgLat::.cpu.data     46175.80                       # Per-master read average memory access latency
system.mem_ctrls0.masterReadAvgLat::.l2.prefetcher     40764.27                       # Per-master read average memory access latency
system.mem_ctrls0.masterWriteAvgLat::.writebacks 121375319.77                       # Per-master write average memory access latency
system.mem_ctrls0.totQLat                   532223016                       # Total ticks spent queuing
system.mem_ctrls0.totMemAccLat              870990580                       # Total ticks spent from burst creation until serviced by the DRAM
system.mem_ctrls0.totBusLat                  64530844                       # Total ticks spent in databus transfers
system.mem_ctrls0.avgQLat                    27480.92                       # Average queueing delay per DRAM burst
system.mem_ctrls0.avgBusLat                   3332.00                       # Average bus latency per DRAM burst
system.mem_ctrls0.avgMemAccLat               44972.92                       # Average memory access latency per DRAM burst
system.mem_ctrls0.avgRdBW                      165.79                       # Average DRAM read bandwidth in MiByte/s
system.mem_ctrls0.avgWrBW                       16.50                       # Average achieved write bandwidth in MiByte/s
system.mem_ctrls0.avgRdBWSys                   165.85                       # Average system read bandwidth in MiByte/s
system.mem_ctrls0.avgWrBWSys                    16.98                       # Average system write bandwidth in MiByte/s
system.mem_ctrls0.peakBW                     19207.00                       # Theoretical peak bandwidth in MiByte/s
system.mem_ctrls0.busUtil                        0.95                       # Data bus utilization in percentage
system.mem_ctrls0.busUtilRead                    0.86                       # Data bus utilization in percentage for reads
system.mem_ctrls0.busUtilWrite                   0.09                       # Data bus utilization in percentage for writes
system.mem_ctrls0.avgRdQLen                      1.30                       # Average read queue length when enqueuing
system.mem_ctrls0.avgWrQLen                     33.13                       # Average write queue length when enqueuing
system.mem_ctrls0.readRowHits                   14518                       # Number of row buffer hits during reads
system.mem_ctrls0.writeRowHits                   1311                       # Number of row buffer hits during writes
system.mem_ctrls0.readRowHitRate                74.96                       # Row buffer hit rate for reads
system.mem_ctrls0.writeRowHitRate               66.08                       # Row buffer hit rate for writes
system.mem_ctrls0.avgGap                    350039.28                       # Average gap between requests
system.mem_ctrls0.pageHitRate                   74.14                       # Row buffer hit rate, read and write combined
system.mem_ctrls0_0.actEnergy            8214792.768000                       # Energy for activate commands per rank (pJ)
system.mem_ctrls0_0.preEnergy            10900729.963200                       # Energy for precharge commands per rank (pJ)
system.mem_ctrls0_0.readEnergy           37873676.467200                       # Energy for read commands per rank (pJ)
system.mem_ctrls0_0.writeEnergy          3333785.952000                       # Energy for write commands per rank (pJ)
system.mem_ctrls0_0.refreshEnergy        1072282283.452805                       # Energy for refresh commands per rank (pJ)
system.mem_ctrls0_0.actBackEnergy        573020600.040001                       # Energy for active background per rank (pJ)
system.mem_ctrls0_0.preBackEnergy        38193100.646400                       # Energy for precharge background per rank (pJ)
system.mem_ctrls0_0.actPowerDownEnergy   2406560318.668797                       # Energy for active power-down per rank (pJ)
system.mem_ctrls0_0.prePowerDownEnergy   678830759.039997                       # Energy for precharge power-down per rank (pJ)
system.mem_ctrls0_0.selfRefreshEnergy    924591303.484800                       # Energy for self refresh per rank (pJ)
system.mem_ctrls0_0.totalEnergy          5754085188.902402                       # Total energy per rank (pJ)
system.mem_ctrls0_0.averagePower           769.654087                       # Core power per rank (mW)
system.mem_ctrls0_0.totalIdleTime          6742798831                       # Total Idle time Per DRAM Rank
system.mem_ctrls0_0.memoryStateTime::IDLE     37025472                       # Time in different power states
system.mem_ctrls0_0.memoryStateTime::REF    270900000                       # Time in different power states
system.mem_ctrls0_0.memoryStateTime::SREF   1411738360                       # Time in different power states
system.mem_ctrls0_0.memoryStateTime::PRE_PDN   1414239126                       # Time in different power states
system.mem_ctrls0_0.memoryStateTime::ACT    425354009                       # Time in different power states
system.mem_ctrls0_0.memoryStateTime::ACT_PDN   3916939533                       # Time in different power states
system.mem_ctrls0_1.actEnergy            8829186.912000                       # Energy for activate commands per rank (pJ)
system.mem_ctrls0_1.preEnergy            11692681.056000                       # Energy for precharge commands per rank (pJ)
system.mem_ctrls0_1.readEnergy           43590060.998400                       # Energy for read commands per rank (pJ)
system.mem_ctrls0_1.writeEnergy          3908835.840000                       # Energy for write commands per rank (pJ)
system.mem_ctrls0_1.refreshEnergy        1075053038.707205                       # Energy for refresh commands per rank (pJ)
system.mem_ctrls0_1.actBackEnergy        535930577.985599                       # Energy for active background per rank (pJ)
system.mem_ctrls0_1.preBackEnergy        36146303.692800                       # Energy for precharge background per rank (pJ)
system.mem_ctrls0_1.actPowerDownEnergy   2547654066.585601                       # Energy for active power-down per rank (pJ)
system.mem_ctrls0_1.prePowerDownEnergy   596867157.599997                       # Energy for precharge power-down per rank (pJ)
system.mem_ctrls0_1.selfRefreshEnergy    904606848.465600                       # Energy for self refresh per rank (pJ)
system.mem_ctrls0_1.totalEnergy          5764278757.843193                       # Total energy per rank (pJ)
system.mem_ctrls0_1.averagePower           771.017557                       # Core power per rank (mW)
system.mem_ctrls0_1.totalIdleTime          6790003995                       # Total Idle time Per DRAM Rank
system.mem_ctrls0_1.memoryStateTime::IDLE     33645000                       # Time in different power states
system.mem_ctrls0_1.memoryStateTime::REF    271600000                       # Time in different power states
system.mem_ctrls0_1.memoryStateTime::SREF   1399972680                       # Time in different power states
system.mem_ctrls0_1.memoryStateTime::PRE_PDN   1243475331                       # Time in different power states
system.mem_ctrls0_1.memoryStateTime::ACT    380896497                       # Time in different power states
system.mem_ctrls0_1.memoryStateTime::ACT_PDN   4146606992                       # Time in different power states
system.mem_ctrls1.pwrStateResidencyTicks::UNDEFINED   7476196500                       # Cumulative time (in ticks) in various power states
system.mem_ctrls1.bytes_read::.cpu.inst        223616                       # Number of bytes read from this memory
system.mem_ctrls1.bytes_read::.cpu.data        426944                       # Number of bytes read from this memory
system.mem_ctrls1.bytes_read::.l2.prefetcher       588160                       # Number of bytes read from this memory
system.mem_ctrls1.bytes_read::total           1238720                       # Number of bytes read from this memory
system.mem_ctrls1.bytes_inst_read::.cpu.inst       223616                       # Number of instructions bytes read from this memory
system.mem_ctrls1.bytes_inst_read::total       223616                       # Number of instructions bytes read from this memory
system.mem_ctrls1.bytes_written::.writebacks       128384                       # Number of bytes written to this memory
system.mem_ctrls1.bytes_written::total         128384                       # Number of bytes written to this memory
system.mem_ctrls1.num_reads::.cpu.inst           3494                       # Number of read requests responded to by this memory
system.mem_ctrls1.num_reads::.cpu.data           6671                       # Number of read requests responded to by this memory
system.mem_ctrls1.num_reads::.l2.prefetcher         9190                       # Number of read requests responded to by this memory
system.mem_ctrls1.num_reads::total              19355                       # Number of read requests responded to by this memory
system.mem_ctrls1.num_writes::.writebacks         2006                       # Number of write requests responded to by this memory
system.mem_ctrls1.num_writes::total              2006                       # Number of write requests responded to by this memory
system.mem_ctrls1.bw_read::.cpu.inst         29910396                       # Total read bandwidth from this memory (bytes/s)
system.mem_ctrls1.bw_read::.cpu.data         57107113                       # Total read bandwidth from this memory (bytes/s)
system.mem_ctrls1.bw_read::.l2.prefetcher     78671019                       # Total read bandwidth from this memory (bytes/s)
system.mem_ctrls1.bw_read::total            165688529                       # Total read bandwidth from this memory (bytes/s)
system.mem_ctrls1.bw_inst_read::.cpu.inst     29910396                       # Instruction read bandwidth from this memory (bytes/s)
system.mem_ctrls1.bw_inst_read::total        29910396                       # Instruction read bandwidth from this memory (bytes/s)
system.mem_ctrls1.bw_write::.writebacks      17172368                       # Write bandwidth from this memory (bytes/s)
system.mem_ctrls1.bw_write::total            17172368                       # Write bandwidth from this memory (bytes/s)
system.mem_ctrls1.bw_total::.writebacks      17172368                       # Total bandwidth to/from this memory (bytes/s)
system.mem_ctrls1.bw_total::.cpu.inst        29910396                       # Total bandwidth to/from this memory (bytes/s)
system.mem_ctrls1.bw_total::.cpu.data        57107113                       # Total bandwidth to/from this memory (bytes/s)
system.mem_ctrls1.bw_total::.l2.prefetcher     78671019                       # Total bandwidth to/from this memory (bytes/s)
system.mem_ctrls1.bw_total::total           182860897                       # Total bandwidth to/from this memory (bytes/s)
system.mem_ctrls1.avgPriority_.writebacks::samples      2006.00                       # Average QoS priority value for accepted requests
system.mem_ctrls1.avgPriority_.cpu.inst::samples      3494.00                       # Average QoS priority value for accepted requests
system.mem_ctrls1.avgPriority_.cpu.data::samples      6664.00                       # Average QoS priority value for accepted requests
system.mem_ctrls1.avgPriority_.l2.prefetcher::samples      9190.00                       # Average QoS priority value for accepted requests
system.mem_ctrls1.priorityMinLatency     0.000000017492                       # per QoS priority minimum request to response latency (s)
system.mem_ctrls1.priorityMaxLatency     0.006210424652                       # per QoS priority maximum request to response latency (s)
system.mem_ctrls1.numReadWriteTurnArounds          112                       # Number of turnarounds from READ to WRITE
system.mem_ctrls1.numWriteReadTurnArounds          112                       # Number of turnarounds from WRITE to READ
system.mem_ctrls1.numStayReadState              41899                       # Number of times bus staying in READ state
system.mem_ctrls1.numStayWriteState              1853                       # Number of times bus staying in WRITE state
system.mem_ctrls1.readReqs                      19355                       # Number of read requests accepted
system.mem_ctrls1.writeReqs                      2006                       # Number of write requests accepted
system.mem_ctrls1.readBursts                    19355                       # Number of DRAM read bursts, including those serviced by the write queue
system.mem_ctrls1.writeBursts                    2006                       # Number of DRAM write bursts, including those merged in the write queue
system.mem_ctrls1.bytesReadDRAM               1238272                       # Total number of bytes read from DRAM
system.mem_ctrls1.bytesReadWrQ                    448                       # Total number of bytes read from write queue
system.mem_ctrls1.bytesWritten                 124352                       # Total number of bytes written to DRAM
system.mem_ctrls1.bytesReadSys                1238720                       # Total read bytes from the system interface side
system.mem_ctrls1.bytesWrittenSys              128384                       # Total written bytes from the system interface side
system.mem_ctrls1.servicedByWrQ                     7                       # Number of DRAM read bursts serviced by the write queue
system.mem_ctrls1.mergedWrBursts                    0                       # Number of DRAM write bursts merged with an existing one
system.mem_ctrls1.neitherReadNorWriteReqs            0                       # Number of requests that are neither read nor write
system.mem_ctrls1.perBankRdBursts::0              584                       # Per bank write bursts
system.mem_ctrls1.perBankRdBursts::1              452                       # Per bank write bursts
system.mem_ctrls1.perBankRdBursts::2              387                       # Per bank write bursts
system.mem_ctrls1.perBankRdBursts::3              502                       # Per bank write bursts
system.mem_ctrls1.perBankRdBursts::4              580                       # Per bank write bursts
system.mem_ctrls1.perBankRdBursts::5              619                       # Per bank write bursts
system.mem_ctrls1.perBankRdBursts::6              602                       # Per bank write bursts
system.mem_ctrls1.perBankRdBursts::7              735                       # Per bank write bursts
system.mem_ctrls1.perBankRdBursts::8              572                       # Per bank write bursts
system.mem_ctrls1.perBankRdBursts::9              526                       # Per bank write bursts
system.mem_ctrls1.perBankRdBursts::10             645                       # Per bank write bursts
system.mem_ctrls1.perBankRdBursts::11             608                       # Per bank write bursts
system.mem_ctrls1.perBankRdBursts::12             541                       # Per bank write bursts
system.mem_ctrls1.perBankRdBursts::13             513                       # Per bank write bursts
system.mem_ctrls1.perBankRdBursts::14             528                       # Per bank write bursts
system.mem_ctrls1.perBankRdBursts::15             555                       # Per bank write bursts
system.mem_ctrls1.perBankRdBursts::16             570                       # Per bank write bursts
system.mem_ctrls1.perBankRdBursts::17             588                       # Per bank write bursts
system.mem_ctrls1.perBankRdBursts::18             685                       # Per bank write bursts
system.mem_ctrls1.perBankRdBursts::19             827                       # Per bank write bursts
system.mem_ctrls1.perBankRdBursts::20             662                       # Per bank write bursts
system.mem_ctrls1.perBankRdBursts::21             885                       # Per bank write bursts
system.mem_ctrls1.perBankRdBursts::22             888                       # Per bank write bursts
system.mem_ctrls1.perBankRdBursts::23            1033                       # Per bank write bursts
system.mem_ctrls1.perBankRdBursts::24             791                       # Per bank write bursts
system.mem_ctrls1.perBankRdBursts::25             701                       # Per bank write bursts
system.mem_ctrls1.perBankRdBursts::26             624                       # Per bank write bursts
system.mem_ctrls1.perBankRdBursts::27             422                       # Per bank write bursts
system.mem_ctrls1.perBankRdBursts::28             415                       # Per bank write bursts
system.mem_ctrls1.perBankRdBursts::29             480                       # Per bank write bursts
system.mem_ctrls1.perBankRdBursts::30             345                       # Per bank write bursts
system.mem_ctrls1.perBankRdBursts::31             483                       # Per bank write bursts
system.mem_ctrls1.perBankWrBursts::0               25                       # Per bank write bursts
system.mem_ctrls1.perBankWrBursts::1               16                       # Per bank write bursts
system.mem_ctrls1.perBankWrBursts::2               11                       # Per bank write bursts
system.mem_ctrls1.perBankWrBursts::3               71                       # Per bank write bursts
system.mem_ctrls1.perBankWrBursts::4               64                       # Per bank write bursts
system.mem_ctrls1.perBankWrBursts::5              115                       # Per bank write bursts
system.mem_ctrls1.perBankWrBursts::6               96                       # Per bank write bursts
system.mem_ctrls1.perBankWrBursts::7              196                       # Per bank write bursts
system.mem_ctrls1.perBankWrBursts::8              141                       # Per bank write bursts
system.mem_ctrls1.perBankWrBursts::9               53                       # Per bank write bursts
system.mem_ctrls1.perBankWrBursts::10              93                       # Per bank write bursts
system.mem_ctrls1.perBankWrBursts::11               2                       # Per bank write bursts
system.mem_ctrls1.perBankWrBursts::12               5                       # Per bank write bursts
system.mem_ctrls1.perBankWrBursts::13               5                       # Per bank write bursts
system.mem_ctrls1.perBankWrBursts::14               0                       # Per bank write bursts
system.mem_ctrls1.perBankWrBursts::15               4                       # Per bank write bursts
system.mem_ctrls1.perBankWrBursts::16              33                       # Per bank write bursts
system.mem_ctrls1.perBankWrBursts::17              13                       # Per bank write bursts
system.mem_ctrls1.perBankWrBursts::18              46                       # Per bank write bursts
system.mem_ctrls1.perBankWrBursts::19              96                       # Per bank write bursts
system.mem_ctrls1.perBankWrBursts::20              76                       # Per bank write bursts
system.mem_ctrls1.perBankWrBursts::21             137                       # Per bank write bursts
system.mem_ctrls1.perBankWrBursts::22             176                       # Per bank write bursts
system.mem_ctrls1.perBankWrBursts::23             254                       # Per bank write bursts
system.mem_ctrls1.perBankWrBursts::24              56                       # Per bank write bursts
system.mem_ctrls1.perBankWrBursts::25              40                       # Per bank write bursts
system.mem_ctrls1.perBankWrBursts::26              45                       # Per bank write bursts
system.mem_ctrls1.perBankWrBursts::27              19                       # Per bank write bursts
system.mem_ctrls1.perBankWrBursts::28              13                       # Per bank write bursts
system.mem_ctrls1.perBankWrBursts::29              11                       # Per bank write bursts
system.mem_ctrls1.perBankWrBursts::30               0                       # Per bank write bursts
system.mem_ctrls1.perBankWrBursts::31              31                       # Per bank write bursts
system.mem_ctrls1.numRdRetry                        0                       # Number of times read queue was full causing retry
system.mem_ctrls1.numWrRetry                        0                       # Number of times write queue was full causing retry
system.mem_ctrls1.totGap                   7476022500                       # Total gap between requests
system.mem_ctrls1.readPktSize::0                    0                       # Read request sizes (log2)
system.mem_ctrls1.readPktSize::1                    0                       # Read request sizes (log2)
system.mem_ctrls1.readPktSize::2                    0                       # Read request sizes (log2)
system.mem_ctrls1.readPktSize::3                    0                       # Read request sizes (log2)
system.mem_ctrls1.readPktSize::4                    0                       # Read request sizes (log2)
system.mem_ctrls1.readPktSize::5                    0                       # Read request sizes (log2)
system.mem_ctrls1.readPktSize::6                19355                       # Read request sizes (log2)
system.mem_ctrls1.writePktSize::0                   0                       # Write request sizes (log2)
system.mem_ctrls1.writePktSize::1                   0                       # Write request sizes (log2)
system.mem_ctrls1.writePktSize::2                   0                       # Write request sizes (log2)
system.mem_ctrls1.writePktSize::3                   0                       # Write request sizes (log2)
system.mem_ctrls1.writePktSize::4                   0                       # Write request sizes (log2)
system.mem_ctrls1.writePktSize::5                   0                       # Write request sizes (log2)
system.mem_ctrls1.writePktSize::6                2006                       # Write request sizes (log2)
system.mem_ctrls1.rdQLenPdf::0                  15657                       # What read queue length does an incoming req see
system.mem_ctrls1.rdQLenPdf::1                   1721                       # What read queue length does an incoming req see
system.mem_ctrls1.rdQLenPdf::2                    807                       # What read queue length does an incoming req see
system.mem_ctrls1.rdQLenPdf::3                    609                       # What read queue length does an incoming req see
system.mem_ctrls1.rdQLenPdf::4                    244                       # What read queue length does an incoming req see
system.mem_ctrls1.rdQLenPdf::5                     87                       # What read queue length does an incoming req see
system.mem_ctrls1.rdQLenPdf::6                     76                       # What read queue length does an incoming req see
system.mem_ctrls1.rdQLenPdf::7                     73                       # What read queue length does an incoming req see
system.mem_ctrls1.rdQLenPdf::8                     73                       # What read queue length does an incoming req see
system.mem_ctrls1.rdQLenPdf::9                      1                       # What read queue length does an incoming req see
system.mem_ctrls1.rdQLenPdf::10                     0                       # What read queue length does an incoming req see
system.mem_ctrls1.rdQLenPdf::11                     0                       # What read queue length does an incoming req see
system.mem_ctrls1.rdQLenPdf::12                     0                       # What read queue length does an incoming req see
system.mem_ctrls1.rdQLenPdf::13                     0                       # What read queue length does an incoming req see
system.mem_ctrls1.rdQLenPdf::14                     0                       # What read queue length does an incoming req see
system.mem_ctrls1.rdQLenPdf::15                     0                       # What read queue length does an incoming req see
system.mem_ctrls1.rdQLenPdf::16                     0                       # What read queue length does an incoming req see
system.mem_ctrls1.rdQLenPdf::17                     0                       # What read queue length does an incoming req see
system.mem_ctrls1.rdQLenPdf::18                     0                       # What read queue length does an incoming req see
system.mem_ctrls1.rdQLenPdf::19                     0                       # What read queue length does an incoming req see
system.mem_ctrls1.rdQLenPdf::20                     0                       # What read queue length does an incoming req see
system.mem_ctrls1.rdQLenPdf::21                     0                       # What read queue length does an incoming req see
system.mem_ctrls1.rdQLenPdf::22                     0                       # What read queue length does an incoming req see
system.mem_ctrls1.rdQLenPdf::23                     0                       # What read queue length does an incoming req see
system.mem_ctrls1.rdQLenPdf::24                     0                       # What read queue length does an incoming req see
system.mem_ctrls1.rdQLenPdf::25                     0                       # What read queue length does an incoming req see
system.mem_ctrls1.rdQLenPdf::26                     0                       # What read queue length does an incoming req see
system.mem_ctrls1.rdQLenPdf::27                     0                       # What read queue length does an incoming req see
system.mem_ctrls1.rdQLenPdf::28                     0                       # What read queue length does an incoming req see
system.mem_ctrls1.rdQLenPdf::29                     0                       # What read queue length does an incoming req see
system.mem_ctrls1.rdQLenPdf::30                     0                       # What read queue length does an incoming req see
system.mem_ctrls1.rdQLenPdf::31                     0                       # What read queue length does an incoming req see
system.mem_ctrls1.rdQLenPdf::32                     0                       # What read queue length does an incoming req see
system.mem_ctrls1.rdQLenPdf::33                     0                       # What read queue length does an incoming req see
system.mem_ctrls1.rdQLenPdf::34                     0                       # What read queue length does an incoming req see
system.mem_ctrls1.rdQLenPdf::35                     0                       # What read queue length does an incoming req see
system.mem_ctrls1.rdQLenPdf::36                     0                       # What read queue length does an incoming req see
system.mem_ctrls1.rdQLenPdf::37                     0                       # What read queue length does an incoming req see
system.mem_ctrls1.rdQLenPdf::38                     0                       # What read queue length does an incoming req see
system.mem_ctrls1.rdQLenPdf::39                     0                       # What read queue length does an incoming req see
system.mem_ctrls1.rdQLenPdf::40                     0                       # What read queue length does an incoming req see
system.mem_ctrls1.rdQLenPdf::41                     0                       # What read queue length does an incoming req see
system.mem_ctrls1.rdQLenPdf::42                     0                       # What read queue length does an incoming req see
system.mem_ctrls1.rdQLenPdf::43                     0                       # What read queue length does an incoming req see
system.mem_ctrls1.rdQLenPdf::44                     0                       # What read queue length does an incoming req see
system.mem_ctrls1.rdQLenPdf::45                     0                       # What read queue length does an incoming req see
system.mem_ctrls1.rdQLenPdf::46                     0                       # What read queue length does an incoming req see
system.mem_ctrls1.rdQLenPdf::47                     0                       # What read queue length does an incoming req see
system.mem_ctrls1.rdQLenPdf::48                     0                       # What read queue length does an incoming req see
system.mem_ctrls1.rdQLenPdf::49                     0                       # What read queue length does an incoming req see
system.mem_ctrls1.rdQLenPdf::50                     0                       # What read queue length does an incoming req see
system.mem_ctrls1.rdQLenPdf::51                     0                       # What read queue length does an incoming req see
system.mem_ctrls1.rdQLenPdf::52                     0                       # What read queue length does an incoming req see
system.mem_ctrls1.rdQLenPdf::53                     0                       # What read queue length does an incoming req see
system.mem_ctrls1.rdQLenPdf::54                     0                       # What read queue length does an incoming req see
system.mem_ctrls1.rdQLenPdf::55                     0                       # What read queue length does an incoming req see
system.mem_ctrls1.rdQLenPdf::56                     0                       # What read queue length does an incoming req see
system.mem_ctrls1.rdQLenPdf::57                     0                       # What read queue length does an incoming req see
system.mem_ctrls1.rdQLenPdf::58                     0                       # What read queue length does an incoming req see
system.mem_ctrls1.rdQLenPdf::59                     0                       # What read queue length does an incoming req see
system.mem_ctrls1.rdQLenPdf::60                     0                       # What read queue length does an incoming req see
system.mem_ctrls1.rdQLenPdf::61                     0                       # What read queue length does an incoming req see
system.mem_ctrls1.rdQLenPdf::62                     0                       # What read queue length does an incoming req see
system.mem_ctrls1.rdQLenPdf::63                     0                       # What read queue length does an incoming req see
system.mem_ctrls1.wrQLenPdf::0                      1                       # What write queue length does an incoming req see
system.mem_ctrls1.wrQLenPdf::1                      1                       # What write queue length does an incoming req see
system.mem_ctrls1.wrQLenPdf::2                      1                       # What write queue length does an incoming req see
system.mem_ctrls1.wrQLenPdf::3                      1                       # What write queue length does an incoming req see
system.mem_ctrls1.wrQLenPdf::4                      1                       # What write queue length does an incoming req see
system.mem_ctrls1.wrQLenPdf::5                      1                       # What write queue length does an incoming req see
system.mem_ctrls1.wrQLenPdf::6                      1                       # What write queue length does an incoming req see
system.mem_ctrls1.wrQLenPdf::7                      1                       # What write queue length does an incoming req see
system.mem_ctrls1.wrQLenPdf::8                      1                       # What write queue length does an incoming req see
system.mem_ctrls1.wrQLenPdf::9                      1                       # What write queue length does an incoming req see
system.mem_ctrls1.wrQLenPdf::10                     1                       # What write queue length does an incoming req see
system.mem_ctrls1.wrQLenPdf::11                     1                       # What write queue length does an incoming req see
system.mem_ctrls1.wrQLenPdf::12                     1                       # What write queue length does an incoming req see
system.mem_ctrls1.wrQLenPdf::13                     1                       # What write queue length does an incoming req see
system.mem_ctrls1.wrQLenPdf::14                     1                       # What write queue length does an incoming req see
system.mem_ctrls1.wrQLenPdf::15                     1                       # What write queue length does an incoming req see
system.mem_ctrls1.wrQLenPdf::16                     1                       # What write queue length does an incoming req see
system.mem_ctrls1.wrQLenPdf::17                     1                       # What write queue length does an incoming req see
system.mem_ctrls1.wrQLenPdf::18                     1                       # What write queue length does an incoming req see
system.mem_ctrls1.wrQLenPdf::19                     1                       # What write queue length does an incoming req see
system.mem_ctrls1.wrQLenPdf::20                     1                       # What write queue length does an incoming req see
system.mem_ctrls1.wrQLenPdf::21                     1                       # What write queue length does an incoming req see
system.mem_ctrls1.wrQLenPdf::22                     1                       # What write queue length does an incoming req see
system.mem_ctrls1.wrQLenPdf::23                     1                       # What write queue length does an incoming req see
[...]
system.l2.avg_blocked_cycles::no_targets          nan                       # average number of cycles each access was blocked
system.l2.unused_prefetches                       222                       # number of HardPF blocks evicted w/o reference
system.l2.writebacks::.writebacks                3990                       # number of writebacks
system.l2.writebacks::total                      3990                       # number of writebacks
system.l2.ReadExReq_mshr_hits::.cpu.data           36                       # number of ReadExReq MSHR hits
system.l2.ReadExReq_mshr_hits::total               36                       # number of ReadExReq MSHR hits
system.l2.ReadSharedReq_mshr_hits::.cpu.data            4                       # number of ReadSharedReq MSHR hits
system.l2.ReadSharedReq_mshr_hits::total            4                       # number of ReadSharedReq MSHR hits
system.l2.demand_mshr_hits::.cpu.data              40                       # number of demand (read+write) MSHR hits
system.l2.demand_mshr_hits::total                  40                       # number of demand (read+write) MSHR hits
system.l2.overall_mshr_hits::.cpu.data             40                       # number of overall MSHR hits
system.l2.overall_mshr_hits::total                 40                       # number of overall MSHR hits
system.l2.HardPFReq_mshr_misses::.l2.prefetcher        20322                       # number of HardPFReq MSHR misses
system.l2.HardPFReq_mshr_misses::total          20322                       # number of HardPFReq MSHR misses
system.l2.UpgradeReq_mshr_misses::.cpu.data           42                       # number of UpgradeReq MSHR misses
system.l2.UpgradeReq_mshr_misses::total            42                       # number of UpgradeReq MSHR misses
system.l2.ReadExReq_mshr_misses::.cpu.data         9914                       # number of ReadExReq MSHR misses
system.l2.ReadExReq_mshr_misses::total           9914                       # number of ReadExReq MSHR misses
system.l2.ReadCleanReq_mshr_misses::.cpu.inst         7022                       # number of ReadCleanReq MSHR misses
system.l2.ReadCleanReq_mshr_misses::total         7022                       # number of ReadCleanReq MSHR misses
system.l2.ReadSharedReq_mshr_misses::.cpu.data         3274                       # number of ReadSharedReq MSHR misses
system.l2.ReadSharedReq_mshr_misses::total         3274                       # number of ReadSharedReq MSHR misses
system.l2.demand_mshr_misses::.cpu.inst          7022                       # number of demand (read+write) MSHR misses
system.l2.demand_mshr_misses::.cpu.data         13188                       # number of demand (read+write) MSHR misses
system.l2.demand_mshr_misses::total             20210                       # number of demand (read+write) MSHR misses
system.l2.overall_mshr_misses::.cpu.inst         7022                       # number of overall MSHR misses
system.l2.overall_mshr_misses::.cpu.data        13188                       # number of overall MSHR misses
system.l2.overall_mshr_misses::.l2.prefetcher        20322                       # number of overall MSHR misses
system.l2.overall_mshr_misses::total            40532                       # number of overall MSHR misses
system.l2.HardPFReq_mshr_miss_latency::.l2.prefetcher   1388053869                       # number of HardPFReq MSHR miss cycles
system.l2.HardPFReq_mshr_miss_latency::total   1388053869                       # number of HardPFReq MSHR miss cycles
system.l2.UpgradeReq_mshr_miss_latency::.cpu.data      1284000                       # number of UpgradeReq MSHR miss cycles
system.l2.UpgradeReq_mshr_miss_latency::total      1284000                       # number of UpgradeReq MSHR miss cycles
system.l2.ReadExReq_mshr_miss_latency::.cpu.data    921554500                       # number of ReadExReq MSHR miss cycles
system.l2.ReadExReq_mshr_miss_latency::total    921554500                       # number of ReadExReq MSHR miss cycles
system.l2.ReadCleanReq_mshr_miss_latency::.cpu.inst    736459501                       # number of ReadCleanReq MSHR miss cycles
system.l2.ReadCleanReq_mshr_miss_latency::total    736459501                       # number of ReadCleanReq MSHR miss cycles
system.l2.ReadSharedReq_mshr_miss_latency::.cpu.data    377482001                       # number of ReadSharedReq MSHR miss cycles
system.l2.ReadSharedReq_mshr_miss_latency::total    377482001                       # number of ReadSharedReq MSHR miss cycles
system.l2.demand_mshr_miss_latency::.cpu.inst    736459501                       # number of demand (read+write) MSHR miss cycles
system.l2.demand_mshr_miss_latency::.cpu.data   1299036501                       # number of demand (read+write) MSHR miss cycles
system.l2.demand_mshr_miss_latency::total   2035496002                       # number of demand (read+write) MSHR miss cycles
system.l2.overall_mshr_miss_latency::.cpu.inst    736459501                       # number of overall MSHR miss cycles
system.l2.overall_mshr_miss_latency::.cpu.data   1299036501                       # number of overall MSHR miss cycles
system.l2.overall_mshr_miss_latency::.l2.prefetcher   1388053869                       # number of overall MSHR miss cycles
system.l2.overall_mshr_miss_latency::total   3423549871                       # number of overall MSHR miss cycles
system.l2.HardPFReq_mshr_miss_rate::.l2.prefetcher          inf                       # mshr miss rate for HardPFReq accesses
system.l2.HardPFReq_mshr_miss_rate::total          inf                       # mshr miss rate for HardPFReq accesses
system.l2.UpgradeReq_mshr_miss_rate::.cpu.data            1                       # mshr miss rate for UpgradeReq accesses
system.l2.UpgradeReq_mshr_miss_rate::total            1                       # mshr miss rate for UpgradeReq accesses
system.l2.ReadExReq_mshr_miss_rate::.cpu.data     0.365736                       # mshr miss rate for ReadExReq accesses
system.l2.ReadExReq_mshr_miss_rate::total     0.365736                       # mshr miss rate for ReadExReq accesses
system.l2.ReadCleanReq_mshr_miss_rate::.cpu.inst     0.155764                       # mshr miss rate for ReadCleanReq accesses
system.l2.ReadCleanReq_mshr_miss_rate::total     0.155764                       # mshr miss rate for ReadCleanReq accesses
system.l2.ReadSharedReq_mshr_miss_rate::.cpu.data     0.303739                       # mshr miss rate for ReadSharedReq accesses
system.l2.ReadSharedReq_mshr_miss_rate::total     0.303739                       # mshr miss rate for ReadSharedReq accesses
system.l2.demand_mshr_miss_rate::.cpu.inst     0.155764                       # mshr miss rate for demand accesses
system.l2.demand_mshr_miss_rate::.cpu.data     0.348097                       # mshr miss rate for demand accesses
system.l2.demand_mshr_miss_rate::total       0.243591                       # mshr miss rate for demand accesses
system.l2.overall_mshr_miss_rate::.cpu.inst     0.155764                       # mshr miss rate for overall accesses
system.l2.overall_mshr_miss_rate::.cpu.data     0.348097                       # mshr miss rate for overall accesses
system.l2.overall_mshr_miss_rate::.l2.prefetcher          inf                       # mshr miss rate for overall accesses
system.l2.overall_mshr_miss_rate::total      0.488532                       # mshr miss rate for overall accesses
system.l2.HardPFReq_avg_mshr_miss_latency::.l2.prefetcher 68303.014910                       # average HardPFReq mshr miss latency
system.l2.HardPFReq_avg_mshr_miss_latency::total 68303.014910                       # average HardPFReq mshr miss latency
system.l2.UpgradeReq_avg_mshr_miss_latency::.cpu.data 30571.428571                       # average UpgradeReq mshr miss latency
system.l2.UpgradeReq_avg_mshr_miss_latency::total 30571.428571                       # average UpgradeReq mshr miss latency
system.l2.ReadExReq_avg_mshr_miss_latency::.cpu.data 92954.861812                       # average ReadExReq mshr miss latency
system.l2.ReadExReq_avg_mshr_miss_latency::total 92954.861812                       # average ReadExReq mshr miss latency
system.l2.ReadCleanReq_avg_mshr_miss_latency::.cpu.inst 104878.880803                       # average ReadCleanReq mshr miss latency
system.l2.ReadCleanReq_avg_mshr_miss_latency::total 104878.880803                       # average ReadCleanReq mshr miss latency
system.l2.ReadSharedReq_avg_mshr_miss_latency::.cpu.data 115296.884850                       # average ReadSharedReq mshr miss latency
system.l2.ReadSharedReq_avg_mshr_miss_latency::total 115296.884850                       # average ReadSharedReq mshr miss latency
system.l2.demand_avg_mshr_miss_latency::.cpu.inst 104878.880803                       # average overall mshr miss latency
system.l2.demand_avg_mshr_miss_latency::.cpu.data 98501.402866                       # average overall mshr miss latency
system.l2.demand_avg_mshr_miss_latency::total 100717.268778                       # average overall mshr miss latency
system.l2.overall_avg_mshr_miss_latency::.cpu.inst 104878.880803                       # average overall mshr miss latency
system.l2.overall_avg_mshr_miss_latency::.cpu.data 98501.402866                       # average overall mshr miss latency
system.l2.overall_avg_mshr_miss_latency::.l2.prefetcher 68303.014910                       # average overall mshr miss latency
system.l2.overall_avg_mshr_miss_latency::total 84465.357520                       # average overall mshr miss latency
system.l2.replacements                           6474                       # number of replacements
system.membus.snoop_filter.tot_requests         45247                       # Total number of requests made to the snoop filter.
system.membus.snoop_filter.hit_single_requests         6634                       # Number of requests hitting in the snoop filter with a single holder of the requested data.
system.membus.snoop_filter.hit_multi_requests            0                       # Number of requests hitting in the snoop filter with multiple (>1) holders of the requested data.
system.membus.snoop_filter.tot_snoops               0                       # Total number of snoops made to the snoop filter.
system.membus.snoop_filter.hit_single_snoops            0                       # Number of snoops hitting in the snoop filter with a single holder of the requested data.
system.membus.snoop_filter.hit_multi_snoops            0                       # Number of snoops hitting in the snoop filter with multiple (>1) holders of the requested data.
system.membus.pwrStateResidencyTicks::UNDEFINED   7476196500                       # Cumulative time (in ticks) in various power states
system.membus.trans_dist::ReadResp              28817                       # Transaction distribution
system.membus.trans_dist::WritebackDirty         3990                       # Transaction distribution
system.membus.trans_dist::CleanEvict             2484                       # Transaction distribution
system.membus.trans_dist::UpgradeReq               44                       # Transaction distribution
system.membus.trans_dist::ReadExReq              9912                       # Transaction distribution
system.membus.trans_dist::ReadExResp             9912                       # Transaction distribution
system.membus.trans_dist::ReadCleanReq          28817                       # Transaction distribution
system.membus.pkt_count_system.l2.mem_side::system.mem_ctrls0.port        41997                       # Packet count per connected master and slave (bytes)
system.membus.pkt_count_system.l2.mem_side::system.mem_ctrls1.port        41979                       # Packet count per connected master and slave (bytes)
system.membus.pkt_count_system.l2.mem_side::total        83976                       # Packet count per connected master and slave (bytes)
system.membus.pkt_count::total                  83976                       # Packet count per connected master and slave (bytes)
system.membus.pkt_size_system.l2.mem_side::system.mem_ctrls0.port      1366912                       # Cumulative packet size per connected master and slave (bytes)
system.membus.pkt_size_system.l2.mem_side::system.mem_ctrls1.port      1367104                       # Cumulative packet size per connected master and slave (bytes)
system.membus.pkt_size_system.l2.mem_side::total      2734016                       # Cumulative packet size per connected master and slave (bytes)
system.membus.pkt_size::total                 2734016                       # Cumulative packet size per connected master and slave (bytes)
system.membus.snoops                                0                       # Total snoops (count)
system.membus.snoopTraffic                          0                       # Total snoop traffic (bytes)
system.membus.snoop_fanout::samples             38773                       # Request fanout histogram
system.membus.snoop_fanout::mean                    0                       # Request fanout histogram
system.membus.snoop_fanout::stdev                   0                       # Request fanout histogram
system.membus.snoop_fanout::underflows              0      0.00%      0.00% # Request fanout histogram
system.membus.snoop_fanout::0                   38773    100.00%    100.00% # Request fanout histogram
system.membus.snoop_fanout::1                       0      0.00%    100.00% # Request fanout histogram
system.membus.snoop_fanout::overflows               0      0.00%    100.00% # Request fanout histogram
system.membus.snoop_fanout::min_value               0                       # Request fanout histogram
system.membus.snoop_fanout::max_value               0                       # Request fanout histogram
system.membus.snoop_fanout::total               38773                       # Request fanout histogram
system.membus.reqLayer2.occupancy            40021833                       # Layer occupancy (ticks)
system.membus.reqLayer2.utilization               0.5                       # Layer utilization (%)
system.membus.reqLayer3.occupancy            40030053                       # Layer occupancy (ticks)
system.membus.reqLayer3.utilization               0.5                       # Layer utilization (%)
system.membus.respLayer1.occupancy          208142290                       # Layer occupancy (ticks)
system.membus.respLayer1.utilization              2.8                       # Layer utilization (%)
system.tol2bus.snoop_filter.tot_requests       164530                       # Total number of requests made to the snoop filter.
system.tol2bus.snoop_filter.hit_single_requests        81462                       # Number of requests hitting in the snoop filter with a single holder of the requested data.
system.tol2bus.snoop_filter.hit_multi_requests          301                       # Number of requests hitting in the snoop filter with multiple (>1) holders of the requested data.
system.tol2bus.snoop_filter.tot_snoops           1804                       # Total number of snoops made to the snoop filter.
system.tol2bus.snoop_filter.hit_single_snoops         1804                       # Number of snoops hitting in the snoop filter with a single holder of the requested data.
system.tol2bus.snoop_filter.hit_multi_snoops            0                       # Number of snoops hitting in the snoop filter with multiple (>1) holders of the requested data.
system.tol2bus.pwrStateResidencyTicks::UNDEFINED   7476196500                       # Cumulative time (in ticks) in various power states
system.tol2bus.trans_dist::ReadResp             55925                       # Transaction distribution
system.tol2bus.trans_dist::WritebackDirty        37760                       # Transaction distribution
system.tol2bus.trans_dist::WritebackClean        47684                       # Transaction distribution
system.tol2bus.trans_dist::CleanEvict            2484                       # Transaction distribution
system.tol2bus.trans_dist::HardPFReq            23582                       # Transaction distribution
system.tol2bus.trans_dist::UpgradeReq              42                       # Transaction distribution
system.tol2bus.trans_dist::UpgradeResp             42                       # Transaction distribution
system.tol2bus.trans_dist::ReadExReq            27107                       # Transaction distribution
system.tol2bus.trans_dist::ReadExResp           27107                       # Transaction distribution
system.tol2bus.trans_dist::ReadCleanReq         45148                       # Transaction distribution
system.tol2bus.trans_dist::ReadSharedReq        10779                       # Transaction distribution
system.tol2bus.pkt_count_system.cpu.icache.mem_side::system.l2.cpu_side       134819                       # Packet count per connected master and slave (bytes)
system.tol2bus.pkt_count_system.cpu.dcache.mem_side::system.l2.cpu_side       112718                       # Packet count per connected master and slave (bytes)
system.tol2bus.pkt_count::total                247537                       # Packet count per connected master and slave (bytes)
system.tol2bus.pkt_size_system.cpu.icache.mem_side::system.l2.cpu_side      5738944                       # Cumulative packet size per connected master and slave (bytes)
system.tol2bus.pkt_size_system.cpu.dcache.mem_side::system.l2.cpu_side      4783872                       # Cumulative packet size per connected master and slave (bytes)
system.tol2bus.pkt_size::total               10522816                       # Cumulative packet size per connected master and slave (bytes)
system.tol2bus.snoops                           30123                       # Total snoops (count)
system.tol2bus.snoopTraffic                    259648                       # Total snoop traffic (bytes)
system.tol2bus.snoop_fanout::samples           113132                       # Request fanout histogram
system.tol2bus.snoop_fanout::mean            0.018677                       # Request fanout histogram
system.tol2bus.snoop_fanout::stdev           0.135383                       # Request fanout histogram
system.tol2bus.snoop_fanout::underflows             0      0.00%      0.00% # Request fanout histogram
system.tol2bus.snoop_fanout::0                 111019     98.13%     98.13% # Request fanout histogram
system.tol2bus.snoop_fanout::1                   2113      1.87%    100.00% # Request fanout histogram
system.tol2bus.snoop_fanout::2                      0      0.00%    100.00% # Request fanout histogram
system.tol2bus.snoop_fanout::3                      0      0.00%    100.00% # Request fanout histogram
system.tol2bus.snoop_fanout::4                      0      0.00%    100.00% # Request fanout histogram
system.tol2bus.snoop_fanout::overflows              0      0.00%    100.00% # Request fanout histogram
system.tol2bus.snoop_fanout::min_value              0                       # Request fanout histogram
system.tol2bus.snoop_fanout::max_value              1                       # Request fanout histogram
system.tol2bus.snoop_fanout::total             113132                       # Request fanout histogram
system.tol2bus.reqLayer0.occupancy          163719000                       # Layer occupancy (ticks)
system.tol2bus.reqLayer0.utilization              2.2                       # Layer utilization (%)
system.tol2bus.respLayer0.occupancy          67731475                       # Layer occupancy (ticks)
system.tol2bus.respLayer0.utilization             0.9                       # Layer utilization (%)
system.tol2bus.respLayer1.occupancy          56865968                       # Layer occupancy (ticks)
system.tol2bus.respLayer1.utilization             0.8                       # Layer utilization (%)

---------- End Simulation Statistics   ----------
