
---------- Begin Simulation Statistics ----------
sim_seconds                                  0.100000                       # Number of seconds simulated
sim_ticks                                100000000000                       # Number of ticks simulated
final_tick                               100000000000                       # Number of ticks from beginning of simulation (restored from checkpoints and never reset)
sim_freq                                 1000000000000                       # Frequency of simulated ticks
host_inst_rate                                  31250                       # Simulator instruction rate (inst/s)
host_op_rate                                    60681                       # Simulator op (including micro ops) rate (op/s)
host_tick_rate                               16141232                       # Simulator tick rate (ticks/s)
host_mem_usage                               67310948                       # Number of bytes of host memory used
host_seconds                                  6195.31                       # Real time elapsed on the host
sim_insts                                   193602045                       # Number of instructions simulated
sim_ops                                     375939810                       # Number of ops (including micro ops) simulated
system.voltage_domain.voltage                       1                       # Voltage in Volts
system.clk_domain.clock                          1000                       # Clock period in ticks
system.mem_ctrls0.pwrStateResidencyTicks::UNDEFINED 100000000000                       # Cumulative time (in ticks) in various power states
system.mem_ctrls0.bytes_read::.cpu.inst         23744                       # Number of bytes read from this memory
system.mem_ctrls0.bytes_read::.cpu.data       8478336                       # Number of bytes read from this memory
system.mem_ctrls0.bytes_read::.l2.prefetcher        88704                       # Number of bytes read from this memory
system.mem_ctrls0.bytes_read::total           8590784                       # Number of bytes read from this memory
system.mem_ctrls0.bytes_inst_read::.cpu.inst        23744                       # Number of instructions bytes read from this memory
system.mem_ctrls0.bytes_inst_read::total        23744                       # Number of instructions bytes read from this memory
system.mem_ctrls0.bytes_written::.writebacks      7472704                       # Number of bytes written to this memory
system.mem_ctrls0.bytes_written::total        7472704                       # Number of bytes written to this memory
system.mem_ctrls0.num_reads::.cpu.inst            371                       # Number of read requests responded to by this memory
system.mem_ctrls0.num_reads::.cpu.data         132474                       # Number of read requests responded to by this memory
system.mem_ctrls0.num_reads::.l2.prefetcher         1386                       # Number of read requests responded to by this memory
system.mem_ctrls0.num_reads::total             134231                       # Number of read requests responded to by this memory
system.mem_ctrls0.num_writes::.writebacks       116761                       # Number of write requests responded to by this memory
system.mem_ctrls0.num_writes::total            116761                       # Number of write requests responded to by this memory
system.mem_ctrls0.bw_read::.cpu.inst           237440                       # Total read bandwidth from this memory (bytes/s)
system.mem_ctrls0.bw_read::.cpu.data         84783360                       # Total read bandwidth from this memory (bytes/s)
system.mem_ctrls0.bw_read::.l2.prefetcher       887040                       # Total read bandwidth from this memory (bytes/s)
system.mem_ctrls0.bw_read::total             85907840                       # Total read bandwidth from this memory (bytes/s)
system.mem_ctrls0.bw_inst_read::.cpu.inst       237440                       # Instruction read bandwidth from this memory (bytes/s)
system.mem_ctrls0.bw_inst_read::total          237440                       # Instruction read bandwidth from this memory (bytes/s)
system.mem_ctrls0.bw_write::.writebacks      74727040                       # Write bandwidth from this memory (bytes/s)
system.mem_ctrls0.bw_write::total            74727040                       # Write bandwidth from this memory (bytes/s)
system.mem_ctrls0.bw_total::.writebacks      74727040                       # Total bandwidth to/from this memory (bytes/s)
system.mem_ctrls0.bw_total::.cpu.inst          237440                       # Total bandwidth to/from this memory (bytes/s)
system.mem_ctrls0.bw_total::.cpu.data        84783360                       # Total bandwidth to/from this memory (bytes/s)
system.mem_ctrls0.bw_total::.l2.prefetcher       887040                       # Total bandwidth to/from this memory (bytes/s)
system.mem_ctrls0.bw_total::total           160634880                       # Total bandwidth to/from this memory (bytes/s)
system.mem_ctrls0.avgPriority_.writebacks::samples    116761.00                       # Average QoS priority value for accepted requests
system.mem_ctrls0.avgPriority_.cpu.inst::samples       371.00                       # Average QoS priority value for accepted requests
system.mem_ctrls0.avgPriority_.cpu.data::samples    132455.00                       # Average QoS priority value for accepted requests
system.mem_ctrls0.avgPriority_.l2.prefetcher::samples      1386.00                       # Average QoS priority value for accepted requests
system.mem_ctrls0.priorityMinLatency     0.000000017492                       # per QoS priority minimum request to response latency (s)
system.mem_ctrls0.priorityMaxLatency     0.001663025652                       # per QoS priority maximum request to response latency (s)
system.mem_ctrls0.numReadWriteTurnArounds         6594                       # Number of turnarounds from READ to WRITE
system.mem_ctrls0.numWriteReadTurnArounds         6594                       # Number of turnarounds from WRITE to READ
system.mem_ctrls0.numStayReadState             405952                       # Number of times bus staying in READ state
system.mem_ctrls0.numStayWriteState            110127                       # Number of times bus staying in WRITE state
system.mem_ctrls0.readReqs                     134231                       # Number of read requests accepted
system.mem_ctrls0.writeReqs                    116761                       # Number of write requests accepted
system.mem_ctrls0.readBursts                   134231                       # Number of DRAM read bursts, including those serviced by the write queue
system.mem_ctrls0.writeBursts                  116761                       # Number of DRAM write bursts, including those merged in the write queue
system.mem_ctrls0.bytesReadDRAM               8589568                       # Total number of bytes read from DRAM
system.mem_ctrls0.bytesReadWrQ                   1216                       # Total number of bytes read from write queue
system.mem_ctrls0.bytesWritten                7468864                       # Total number of bytes written to DRAM
system.mem_ctrls0.bytesReadSys                8590784                       # Total read bytes from the system interface side
system.mem_ctrls0.bytesWrittenSys             7472704                       # Total written bytes from the system interface side
system.mem_ctrls0.servicedByWrQ                    19                       # Number of DRAM read bursts serviced by the write queue
system.mem_ctrls0.mergedWrBursts                    0                       # Number of DRAM write bursts merged with an existing one
system.mem_ctrls0.neitherReadNorWriteReqs            0                       # Number of requests that are neither read nor write
system.mem_ctrls0.perBankRdBursts::0             4336                       # Per bank write bursts
system.mem_ctrls0.perBankRdBursts::1             4325                       # Per bank write bursts
system.mem_ctrls0.perBankRdBursts::2             4306                       # Per bank write bursts
system.mem_ctrls0.perBankRdBursts::3             4316                       # Per bank write bursts
system.mem_ctrls0.perBankRdBursts::4             4251                       # Per bank write bursts
system.mem_ctrls0.perBankRdBursts::5             4155                       # Per bank write bursts
system.mem_ctrls0.perBankRdBursts::6             4211                       # Per bank write bursts
system.mem_ctrls0.perBankRdBursts::7             4113                       # Per bank write bursts
system.mem_ctrls0.perBankRdBursts::8             4139                       # Per bank write bursts
system.mem_ctrls0.perBankRdBursts::9             4056                       # Per bank write bursts
system.mem_ctrls0.perBankRdBursts::10            4045                       # Per bank write bursts
system.mem_ctrls0.perBankRdBursts::11            4119                       # Per bank write bursts
system.mem_ctrls0.perBankRdBursts::12            4153                       # Per bank write bursts
system.mem_ctrls0.perBankRdBursts::13            4181                       # Per bank write bursts
system.mem_ctrls0.perBankRdBursts::14            4253                       # Per bank write bursts
system.mem_ctrls0.perBankRdBursts::15            4329                       # Per bank write bursts
system.mem_ctrls0.perBankRdBursts::16            4330                       # Per bank write bursts
system.mem_ctrls0.perBankRdBursts::17            4450                       # Per bank write bursts
system.mem_ctrls0.perBankRdBursts::18            4371                       # Per bank write bursts
system.mem_ctrls0.perBankRdBursts::19            4319                       # Per bank write bursts
system.mem_ctrls0.perBankRdBursts::20            4248                       # Per bank write bursts
system.mem_ctrls0.perBankRdBursts::21            4198                       # Per bank write bursts
system.mem_ctrls0.perBankRdBursts::22            4174                       # Per bank write bursts
system.mem_ctrls0.perBankRdBursts::23            4094                       # Per bank write bursts
system.mem_ctrls0.perBankRdBursts::24            4074                       # Per bank write bursts
system.mem_ctrls0.perBankRdBursts::25            4031                       # Per bank write bursts
system.mem_ctrls0.perBankRdBursts::26            4063                       # Per bank write bursts
system.mem_ctrls0.perBankRdBursts::27            4049                       # Per bank write bursts
system.mem_ctrls0.perBankRdBursts::28            4026                       # Per bank write bursts
system.mem_ctrls0.perBankRdBursts::29            4139                       # Per bank write bursts
system.mem_ctrls0.perBankRdBursts::30            4133                       # Per bank write bursts
system.mem_ctrls0.perBankRdBursts::31            4225                       # Per bank write bursts
system.mem_ctrls0.perBankWrBursts::0             3806                       # Per bank write bursts
system.mem_ctrls0.perBankWrBursts::1             3817                       # Per bank write bursts
system.mem_ctrls0.perBankWrBursts::2             3734                       # Per bank write bursts
system.mem_ctrls0.perBankWrBursts::3             3676                       # Per bank write bursts
system.mem_ctrls0.perBankWrBursts::4             3667                       # Per bank write bursts
system.mem_ctrls0.perBankWrBursts::5             3576                       # Per bank write bursts
system.mem_ctrls0.perBankWrBursts::6             3562                       # Per bank write bursts
system.mem_ctrls0.perBankWrBursts::7             3550                       # Per bank write bursts
system.mem_ctrls0.perBankWrBursts::8             3552                       # Per bank write bursts
system.mem_ctrls0.perBankWrBursts::9             3557                       # Per bank write bursts
system.mem_ctrls0.perBankWrBursts::10            3535                       # Per bank write bursts
system.mem_ctrls0.perBankWrBursts::11            3629                       # Per bank write bursts
system.mem_ctrls0.perBankWrBursts::12            3610                       # Per bank write bursts
system.mem_ctrls0.perBankWrBursts::13            3704                       # Per bank write bursts
system.mem_ctrls0.perBankWrBursts::14            3716                       # Per bank write bursts
system.mem_ctrls0.perBankWrBursts::15            3710                       # Per bank write bursts
system.mem_ctrls0.perBankWrBursts::16            3769                       # Per bank write bursts
system.mem_ctrls0.perBankWrBursts::17            3877                       # Per bank write bursts
system.mem_ctrls0.perBankWrBursts::18            3844                       # Per bank write bursts
system.mem_ctrls0.perBankWrBursts::19            3777                       # Per bank write bursts
system.mem_ctrls0.perBankWrBursts::20            3712                       # Per bank write bursts
system.mem_ctrls0.perBankWrBursts::21            3678                       # Per bank write bursts
system.mem_ctrls0.perBankWrBursts::22            3614                       # Per bank write bursts
system.mem_ctrls0.perBankWrBursts::23            3576                       # Per bank write bursts
system.mem_ctrls0.perBankWrBursts::24            3567                       # Per bank write bursts
system.mem_ctrls0.perBankWrBursts::25            3458                       # Per bank write bursts
system.mem_ctrls0.perBankWrBursts::26            3510                       # Per bank write bursts
system.mem_ctrls0.perBankWrBursts::27            3476                       # Per bank write bursts
system.mem_ctrls0.perBankWrBursts::28            3503                       # Per bank write bursts
system.mem_ctrls0.perBankWrBursts::29            3577                       # Per bank write bursts
system.mem_ctrls0.perBankWrBursts::30            3609                       # Per bank write bursts
system.mem_ctrls0.perBankWrBursts::31            3753                       # Per bank write bursts
system.mem_ctrls0.numRdRetry                        0                       # Number of times read queue was full causing retry
system.mem_ctrls0.numWrRetry                        0                       # Number of times write queue was full causing retry
system.mem_ctrls0.totGap                  99999802000                       # Total gap between requests
system.mem_ctrls0.readPktSize::0                    0                       # Read request sizes (log2)
system.mem_ctrls0.readPktSize::1                    0                       # Read request sizes (log2)
system.mem_ctrls0.readPktSize::2                    0                       # Read request sizes (log2)
system.mem_ctrls0.readPktSize::3                    0                       # Read request sizes (log2)
system.mem_ctrls0.readPktSize::4                    0                       # Read request sizes (log2)
system.mem_ctrls0.readPktSize::5                    0                       # Read request sizes (log2)
system.mem_ctrls0.readPktSize::6               134231                       # Read request sizes (log2)
system.mem_ctrls0.writePktSize::0                   0                       # Write request sizes (log2)
system.mem_ctrls0.writePktSize::1                   0                       # Write request sizes (log2)
system.mem_ctrls0.writePktSize::2                   0                       # Write request sizes (log2)
system.mem_ctrls0.writePktSize::3                   0                       # Write request sizes (log2)
system.mem_ctrls0.writePktSize::4                   0                       # Write request sizes (log2)
system.mem_ctrls0.writePktSize::5                   0                       # Write request sizes (log2)
system.mem_ctrls0.writePktSize::6              116761                       # Write request sizes (log2)
system.mem_ctrls0.rdQLenPdf::0                 119906                       # What read queue length does an incoming req see
system.mem_ctrls0.rdQLenPdf::1                  12453                       # What read queue length does an incoming req see
system.mem_ctrls0.rdQLenPdf::2                   1684                       # What read queue length does an incoming req see
system.mem_ctrls0.rdQLenPdf::3                    152                       # What read queue length does an incoming req see
system.mem_ctrls0.rdQLenPdf::4                     14                       # What read queue length does an incoming req see
system.mem_ctrls0.rdQLenPdf::5                      3                       # What read queue length does an incoming req see
system.mem_ctrls0.rdQLenPdf::6                      0                       # What read queue length does an incoming req see
system.mem_ctrls0.rdQLenPdf::7                      0                       # What read queue length does an incoming req see
system.mem_ctrls0.rdQLenPdf::8                      0                       # What read queue length does an incoming req see
system.mem_ctrls0.rdQLenPdf::9                      0                       # What read queue length does an incoming req see
system.mem_ctrls0.rdQLenPdf::10                     0                       # What read queue length does an incoming req see
system.mem_ctrls0.rdQLenPdf::11                     0                       # What read queue length does an incoming req see
system.mem_ctrls0.rdQLenPdf::12                     0                       # What read queue length does an incoming req see
system.mem_ctrls0.rdQLenPdf::13                     0                       # What read queue length does an incoming req see
system.mem_ctrls0.rdQLenPdf::14                     0                       # What read queue length does an incoming req see
system.mem_ctrls0.rdQLenPdf::15                     0                       # What read queue length does an incoming req see
system.mem_ctrls0.rdQLenPdf::16                     0                       # What read queue length does an incoming req see
system.mem_ctrls0.rdQLenPdf::17                     0                       # What read queue length does an incoming req see
system.mem_ctrls0.rdQLenPdf::18                     0                       # What read queue length does an incoming req see
system.mem_ctrls0.rdQLenPdf::19                     0                       # What read queue length does an incoming req see
system.mem_ctrls0.rdQLenPdf::20                     0                       # What read queue length does an incoming req see
system.mem_ctrls0.rdQLenPdf::21                     0                       # What read queue length does an incoming req see
system.mem_ctrls0.rdQLenPdf::22                     0                       # What read queue length does an incoming req see
system.mem_ctrls0.rdQLenPdf::23                     0                       # What read queue length does an incoming req see
system.mem_ctrls0.rdQLenPdf::24                     0                       # What read queue length does an incoming req see
system.mem_ctrls0.rdQLenPdf::25                     0                       # What read queue length does an incoming req see
system.mem_ctrls0.rdQLenPdf::26                     0                       # What read queue length does an incoming req see
system.mem_ctrls0.rdQLenPdf::27                     0                       # What read queue length does an incoming req see
system.mem_ctrls0.rdQLenPdf::28                     0                       # What read queue length does an incoming req see
system.mem_ctrls0.rdQLenPdf::29                     0                       # What read queue length does an incoming req see
system.mem_ctrls0.rdQLenPdf::30                     0                       # What read queue length does an incoming req see
system.mem_ctrls0.rdQLenPdf::31                     0                       # What read queue length does an incoming req see
system.mem_ctrls0.rdQLenPdf::32                     0                       # What read queue length does an incoming req see
system.mem_ctrls0.rdQLenPdf::33                     0                       # What read queue length does an incoming req see
system.mem_ctrls0.rdQLenPdf::34                     0                       # What read queue length does an incoming req see
system.mem_ctrls0.rdQLenPdf::35                     0                       # What read queue length does an incoming req see
system.mem_ctrls0.rdQLenPdf::36                     0                       # What read queue length does an incoming req see
system.mem_ctrls0.rdQLenPdf::37                     0                       # What read queue length does an incoming req see
system.mem_ctrls0.rdQLenPdf::38                     0                       # What read queue length does an incoming req see
system.mem_ctrls0.rdQLenPdf::39                     0                       # What read queue length does an incoming req see
system.mem_ctrls0.rdQLenPdf::40                     0                       # What read queue length does an incoming req see
system.mem_ctrls0.rdQLenPdf::41                     0                       # What read queue length does an incoming req see
system.mem_ctrls0.rdQLenPdf::42                     0                       # What read queue length does an incoming req see
system.mem_ctrls0.rdQLenPdf::43                     0                       # What read queue length does an incoming req see
system.mem_ctrls0.rdQLenPdf::44                     0                       # What read queue length does an incoming req see
system.mem_ctrls0.rdQLenPdf::45                     0                       # What read queue length does an incoming req see
system.mem_ctrls0.rdQLenPdf::46                     0                       # What read queue length does an incoming req see
system.mem_ctrls0.rdQLenPdf::47                     0                       # What read queue length does an incoming req see
system.mem_ctrls0.rdQLenPdf::48                     0                       # What read queue length does an incoming req see
system.mem_ctrls0.rdQLenPdf::49                     0                       # What read queue length does an incoming req see
system.mem_ctrls0.rdQLenPdf::50                     0                       # What read queue length does an incoming req see
system.mem_ctrls0.rdQLenPdf::51                     0                       # What read queue length does an incoming req see
system.mem_ctrls0.rdQLenPdf::52                     0                       # What read queue length does an incoming req see
system.mem_ctrls0.rdQLenPdf::53                     0                       # What read queue length does an incoming req see
system.mem_ctrls0.rdQLenPdf::54                     0                       # What read queue length does an incoming req see
system.mem_ctrls0.rdQLenPdf::55                     0                       # What read queue length does an incoming req see
system.mem_ctrls0.rdQLenPdf::56                     0                       # What read queue length does an incoming req see
system.mem_ctrls0.rdQLenPdf::57                     0                       # What read queue length does an incoming req see
system.mem_ctrls0.rdQLenPdf::58                     0                       # What read queue length does an incoming req see
system.mem_ctrls0.rdQLenPdf::59                     0                       # What read queue length does an incoming req see
system.mem_ctrls0.rdQLenPdf::60                     0                       # What read queue length does an incoming req see
system.mem_ctrls0.rdQLenPdf::61                     0                       # What read queue length does an incoming req see
system.mem_ctrls0.rdQLenPdf::62                     0                       # What read queue length does an incoming req see
system.mem_ctrls0.rdQLenPdf::63                     0                       # What read queue length does an incoming req see
system.mem_ctrls0.wrQLenPdf::0                      1                       # What write queue length does an incoming req see
system.mem_ctrls0.wrQLenPdf::1                      1                       # What write queue length does an incoming req see
system.mem_ctrls0.wrQLenPdf::2                      1                       # What write queue length does an incoming req see
system.mem_ctrls0.wrQLenPdf::3                      1                       # What write queue length does an incoming req see
system.mem_ctrls0.wrQLenPdf::4                      1                       # What write queue length does an incoming req see
system.mem_ctrls0.wrQLenPdf::5                      1                       # What write queue length does an incoming req see
system.mem_ctrls0.wrQLenPdf::6                      1                       # What write queue length does an incoming req see
system.mem_ctrls0.wrQLenPdf::7                      1                       # What write queue length does an incoming req see
system.mem_ctrls0.wrQLenPdf::8                      1                       # What write queue length does an incoming req see
system.mem_ctrls0.wrQLenPdf::9                      1                       # What write queue length does an incoming req see
system.mem_ctrls0.wrQLenPdf::10                     1                       # What write queue length does an incoming req see
system.mem_ctrls0.wrQLenPdf::11                     1                       # What write queue length does an incoming req see
system.mem_ctrls0.wrQLenPdf::12                     1                       # What write queue length does an incoming req see
system.mem_ctrls0.wrQLenPdf::13                     1                       # What write queue length does an incoming req see
system.mem_ctrls0.wrQLenPdf::14                     1                       # What write queue length does an incoming req see
system.mem_ctrls0.wrQLenPdf::15                     1                       # What write queue length does an incoming req see
system.mem_ctrls0.wrQLenPdf::16                     1                       # What write queue length does an incoming req see
system.mem_ctrls0.wrQLenPdf::17                     1                       # What write queue length does an incoming req see
system.mem_ctrls0.wrQLenPdf::18                     1                       # What write queue length does an incoming req see
system.mem_ctrls0.wrQLenPdf::19                     1                       # What write queue length does an incoming req see
system.mem_ctrls0.wrQLenPdf::20                     1                       # What write queue length does an incoming req see
system.mem_ctrls0.wrQLenPdf::21                     1                       # What write queue length does an incoming req see
system.mem_ctrls0.wrQLenPdf::22                     1                       # What write queue length does an incoming req see
system.mem_ctrls0.wrQLenPdf::23                     1                       # What write queue length does an incoming req see
system.mem_ctrls0.wrQLenPdf::24                     1                       # What write queue length does an incoming req see
system.mem_ctrls0.wrQLenPdf::25                     1                       # What write queue length does an incoming req see
system.mem_ctrls0.wrQLenPdf::26                     1                       # What write queue length does an incoming req see
system.mem_ctrls0.wrQLenPdf::27                     1                       # What write queue length does an incoming req see
system.mem_ctrls0.wrQLenPdf::28                     1                       # What write queue length does an incoming req see
system.mem_ctrls0.wrQLenPdf::29                     1                       # What write queue length does an incoming req see
system.mem_ctrls0.wrQLenPdf::30                     1                       # What write queue length does an incoming req see
system.mem_ctrls0.wrQLenPdf::31                     1                       # What write queue length does an incoming req see
system.mem_ctrls0.wrQLenPdf::32                     1                       # What write queue length does an incoming req see
system.mem_ctrls0.wrQLenPdf::33                     1                       # What write queue length does an incoming req see
system.mem_ctrls0.wrQLenPdf::34                     1                       # What write queue length does an incoming req see
system.mem_ctrls0.wrQLenPdf::35                     1                       # What write queue length does an incoming req see
system.mem_ctrls0.wrQLenPdf::36                     1                       # What write queue length does an incoming req see
system.mem_ctrls0.wrQLenPdf::37                     1                       # What write queue length does an incoming req see
system.mem_ctrls0.wrQLenPdf::38                     1                       # What write queue length does an incoming req see
system.mem_ctrls0.wrQLenPdf::39                     1                       # What write queue length does an incoming req see
system.mem_ctrls0.wrQLenPdf::40                     1                       # What write queue length does an incoming req see
system.mem_ctrls0.wrQLenPdf::41                     1                       # What write queue length does an incoming req see
system.mem_ctrls0.wrQLenPdf::42                     1                       # What write queue length does an incoming req see
system.mem_ctrls0.wrQLenPdf::43                     1                       # What write queue length does an incoming req see
system.mem_ctrls0.wrQLenPdf::44                     1                       # What write queue length does an incoming req see
system.mem_ctrls0.wrQLenPdf::45                     1                       # What write queue length does an incoming req see
system.mem_ctrls0.wrQLenPdf::46                     1                       # What write queue length does an incoming req see
system.mem_ctrls0.wrQLenPdf::47                  5204                       # What write queue length does an incoming req see
system.mem_ctrls0.wrQLenPdf::48                  5278                       # What write queue length does an incoming req see
system.mem_ctrls0.wrQLenPdf::49                  6510                       # What write queue length does an incoming req see
system.mem_ctrls0.wrQLenPdf::50                  6625                       # What write queue length does an incoming req see
system.mem_ctrls0.wrQLenPdf::51                  6634                       # What write queue length does an incoming req see
system.mem_ctrls0.wrQLenPdf::52                  6635                       # What write queue length does an incoming req see
system.mem_ctrls0.wrQLenPdf::53                  6643                       # What write queue length does an incoming req see
system.mem_ctrls0.wrQLenPdf::54                  6651                       # What write queue length does an incoming req see
system.mem_ctrls0.wrQLenPdf::55                  6641                       # What write queue length does an incoming req see
system.mem_ctrls0.wrQLenPdf::56                  6611                       # What write queue length does an incoming req see
system.mem_ctrls0.wrQLenPdf::57                  6616                       # What write queue length does an incoming req see
system.mem_ctrls0.wrQLenPdf::58                  6629                       # What write queue length does an incoming req see
system.mem_ctrls0.wrQLenPdf::59                  6684                       # What write queue length does an incoming req see
system.mem_ctrls0.wrQLenPdf::60                  6717                       # What write queue length does an incoming req see
system.mem_ctrls0.wrQLenPdf::61                  6836                       # What write queue length does an incoming req see
system.mem_ctrls0.wrQLenPdf::62                  6596                       # What write queue length does an incoming req see
system.mem_ctrls0.wrQLenPdf::63                  6597                       # What write queue length does an incoming req see
system.mem_ctrls0.wrQLenPdf::64                  6596                       # What write queue length does an incoming req see
system.mem_ctrls0.wrQLenPdf::65                    11                       # What write queue length does an incoming req see
system.mem_ctrls0.wrQLenPdf::66                     0                       # What write queue length does an incoming req see
system.mem_ctrls0.wrQLenPdf::67                     0                       # What write queue length does an incoming req see
system.mem_ctrls0.wrQLenPdf::68                     0                       # What write queue length does an incoming req see
system.mem_ctrls0.wrQLenPdf::69                     0                       # What write queue length does an incoming req see
system.mem_ctrls0.wrQLenPdf::70                     0                       # What write queue length does an incoming req see
system.mem_ctrls0.wrQLenPdf::71                     0                       # What write queue length does an incoming req see
system.mem_ctrls0.wrQLenPdf::72                     0                       # What write queue length does an incoming req see
system.mem_ctrls0.wrQLenPdf::73                     0                       # What write queue length does an incoming req see
system.mem_ctrls0.wrQLenPdf::74                     0                       # What write queue length does an incoming req see
system.mem_ctrls0.wrQLenPdf::75                     0                       # What write queue length does an incoming req see
system.mem_ctrls0.wrQLenPdf::76                     0                       # What write queue length does an incoming req see
system.mem_ctrls0.wrQLenPdf::77                     0                       # What write queue length does an incoming req see
system.mem_ctrls0.wrQLenPdf::78                     0                       # What write queue length does an incoming req see
system.mem_ctrls0.wrQLenPdf::79                     0                       # What write queue length does an incoming req see
system.mem_ctrls0.wrQLenPdf::80                     0                       # What write queue length does an incoming req see
system.mem_ctrls0.wrQLenPdf::81                     0                       # What write queue length does an incoming req see
system.mem_ctrls0.wrQLenPdf::82                     0                       # What write queue length does an incoming req see
system.mem_ctrls0.wrQLenPdf::83                     0                       # What write queue length does an incoming req see
system.mem_ctrls0.wrQLenPdf::84                     0                       # What write queue length does an incoming req see
system.mem_ctrls0.wrQLenPdf::85                     0                       # What write queue length does an incoming req see
system.mem_ctrls0.wrQLenPdf::86                     0                       # What write queue length does an incoming req see
system.mem_ctrls0.wrQLenPdf::87                     0                       # What write queue length does an incoming req see
system.mem_ctrls0.wrQLenPdf::88                     0                       # What write queue length does an incoming req see
system.mem_ctrls0.wrQLenPdf::89                     0                       # What write queue length does an incoming req see
system.mem_ctrls0.wrQLenPdf::90                     0                       # What write queue length does an incoming req see
system.mem_ctrls0.wrQLenPdf::91                     0                       # What write queue length does an incoming req see
system.mem_ctrls0.wrQLenPdf::92                     0                       # What write queue length does an incoming req see
system.mem_ctrls0.wrQLenPdf::93                     0                       # What write queue length does an incoming req see
system.mem_ctrls0.wrQLenPdf::94                     0                       # What write queue length does an incoming req see
system.mem_ctrls0.wrQLenPdf::95                     0                       # What write queue length does an incoming req see
system.mem_ctrls0.wrQLenPdf::96                     0                       # What write queue length does an incoming req see
system.mem_ctrls0.wrQLenPdf::97                     0                       # What write queue length does an incoming req see
system.mem_ctrls0.wrQLenPdf::98                     0                       # What write queue length does an incoming req see
system.mem_ctrls0.wrQLenPdf::99                     0                       # What write queue length does an incoming req see
system.mem_ctrls0.wrQLenPdf::100                    0                       # What write queue length does an incoming req see
system.mem_ctrls0.wrQLenPdf::101                    0                       # What write queue length does an incoming req see
system.mem_ctrls0.wrQLenPdf::102                    0                       # What write queue length does an incoming req see
system.mem_ctrls0.wrQLenPdf::103                    0                       # What write queue length does an incoming req see
system.mem_ctrls0.wrQLenPdf::104                    0                       # What write queue length does an incoming req see
system.mem_ctrls0.wrQLenPdf::105                    0                       # What write queue length does an incoming req see
system.mem_ctrls0.wrQLenPdf::106                    0                       # What write queue length does an incoming req see
system.mem_ctrls0.wrQLenPdf::107                    0                       # What write queue length does an incoming req see
system.mem_ctrls0.wrQLenPdf::108                    0                       # What write queue length does an incoming req see
system.mem_ctrls0.wrQLenPdf::109                    0                       # What write queue length does an incoming req see
system.mem_ctrls0.wrQLenPdf::110                    0                       # What write queue length does an incoming req see
system.mem_ctrls0.wrQLenPdf::111                    0                       # What write queue length does an incoming req see
system.mem_ctrls0.wrQLenPdf::112                    0                       # What write queue length does an incoming req see
system.mem_ctrls0.wrQLenPdf::113                    0                       # What write queue length does an incoming req see
system.mem_ctrls0.wrQLenPdf::114                    0                       # What write queue length does an incoming req see
system.mem_ctrls0.wrQLenPdf::115                    0                       # What write queue length does an incoming req see
system.mem_ctrls0.wrQLenPdf::116                    0                       # What write queue length does an incoming req see
system.mem_ctrls0.wrQLenPdf::117                    0                       # What write queue length does an incoming req see
system.mem_ctrls0.wrQLenPdf::118                    0                       # What write queue length does an incoming req see
system.mem_ctrls0.wrQLenPdf::119                    0                       # What write queue length does an incoming req see
system.mem_ctrls0.wrQLenPdf::120                    0                       # What write queue length does an incoming req see
system.mem_ctrls0.wrQLenPdf::121                    0                       # What write queue length does an incoming req see
system.mem_ctrls0.wrQLenPdf::122                    0                       # What write queue length does an incoming req see
system.mem_ctrls0.wrQLenPdf::123                    0                       # What write queue length does an incoming req see
system.mem_ctrls0.wrQLenPdf::124                    0                       # What write queue length does an incoming req see
system.mem_ctrls0.wrQLenPdf::125                    0                       # What write queue length does an incoming req see
system.mem_ctrls0.wrQLenPdf::126                    0                       # What write queue length does an incoming req see
system.mem_ctrls0.wrQLenPdf::127                    0                       # What write queue length does an incoming req see
system.mem_ctrls0.bytesPerActivate::samples       176073                       # Bytes accessed per row activation
system.mem_ctrls0.bytesPerActivate::mean    91.202535                       # Bytes accessed per row activation
system.mem_ctrls0.bytesPerActivate::gmean    79.162395                       # Bytes accessed per row activation
system.mem_ctrls0.bytesPerActivate::stdev    71.309415                       # Bytes accessed per row activation
system.mem_ctrls0.bytesPerActivate::0-127       137896     78.32%     78.32% # Bytes accessed per row activation
system.mem_ctrls0.bytesPerActivate::128-255        28911     16.42%     94.74% # Bytes accessed per row activation
system.mem_ctrls0.bytesPerActivate::256-383         6114      3.47%     98.21% # Bytes accessed per row activation
system.mem_ctrls0.bytesPerActivate::384-511         1968      1.12%     99.33% # Bytes accessed per row activation
system.mem_ctrls0.bytesPerActivate::512-639         1000      0.57%     99.90% # Bytes accessed per row activation
system.mem_ctrls0.bytesPerActivate::640-767          104      0.06%     99.95% # Bytes accessed per row activation
system.mem_ctrls0.bytesPerActivate::768-895           34      0.02%     99.97% # Bytes accessed per row activation
system.mem_ctrls0.bytesPerActivate::896-1023           28      0.02%     99.99% # Bytes accessed per row activation
system.mem_ctrls0.bytesPerActivate::1024-1151           18      0.01%    100.00% # Bytes accessed per row activation
system.mem_ctrls0.bytesPerActivate::total       176073                       # Bytes accessed per row activation
system.mem_ctrls0.rdPerTurnAround::samples         6594                       # Reads before turning the bus around for writes
system.mem_ctrls0.rdPerTurnAround::mean     20.353048                       # Reads before turning the bus around for writes
system.mem_ctrls0.rdPerTurnAround::gmean    17.483747                       # Reads before turning the bus around for writes
system.mem_ctrls0.rdPerTurnAround::stdev   165.590495                       # Reads before turning the bus around for writes
system.mem_ctrls0.rdPerTurnAround::0-255         6590     99.94%     99.94% # Reads before turning the bus around for writes
system.mem_ctrls0.rdPerTurnAround::256-511            3      0.05%     99.98% # Reads before turning the bus around for writes
system.mem_ctrls0.rdPerTurnAround::13312-13567            1      0.02%    100.00% # Reads before turning the bus around for writes
system.mem_ctrls0.rdPerTurnAround::total         6594                       # Reads before turning the bus around for writes
system.mem_ctrls0.wrPerTurnAround::samples         6594                       # Writes before turning the bus around for reads
system.mem_ctrls0.wrPerTurnAround::mean     17.698059                       # Writes before turning the bus around for reads
system.mem_ctrls0.wrPerTurnAround::gmean    17.672228                       # Writes before turning the bus around for reads
system.mem_ctrls0.wrPerTurnAround::stdev     0.942599                       # Writes before turning the bus around for reads
system.mem_ctrls0.wrPerTurnAround::16            1365     20.70%     20.70% # Writes before turning the bus around for reads
system.mem_ctrls0.wrPerTurnAround::17              17      0.26%     20.96% # Writes before turning the bus around for reads
system.mem_ctrls0.wrPerTurnAround::18            4557     69.11%     90.07% # Writes before turning the bus around for reads
system.mem_ctrls0.wrPerTurnAround::19             564      8.55%     98.62% # Writes before turning the bus around for reads
system.mem_ctrls0.wrPerTurnAround::20              83      1.26%     99.88% # Writes before turning the bus around for reads
system.mem_ctrls0.wrPerTurnAround::21               6      0.09%     99.97% # Writes before turning the bus around for reads
system.mem_ctrls0.wrPerTurnAround::22               2      0.03%    100.00% # Writes before turning the bus around for reads
system.mem_ctrls0.wrPerTurnAround::total         6594                       # Writes before turning the bus around for reads
system.mem_ctrls0.masterReadBytes::.cpu.inst        23744                       # Per-master bytes read from memory
system.mem_ctrls0.masterReadBytes::.cpu.data      8477120                       # Per-master bytes read from memory
system.mem_ctrls0.masterReadBytes::.l2.prefetcher        88704                       # Per-master bytes read from memory
system.mem_ctrls0.masterWriteBytes::.writebacks      7468864                       # Per-master bytes write to memory
system.mem_ctrls0.masterReadRate::.cpu.inst 237440.000000000000                       # Per-master bytes read from memory rate (Bytes/sec)
system.mem_ctrls0.masterReadRate::.cpu.data 84771200.000000000000                       # Per-master bytes read from memory rate (Bytes/sec)
system.mem_ctrls0.masterReadRate::.l2.prefetcher 887040.000000000000                       # Per-master bytes read from memory rate (Bytes/sec)
system.mem_ctrls0.masterWriteRate::.writebacks 74688640.000000000000                       # Per-master bytes write to memory rate (Bytes/sec)
system.mem_ctrls0.masterReadAccesses::.cpu.inst          371                       # Per-master read serviced memory accesses
system.mem_ctrls0.masterReadAccesses::.cpu.data       132474                       # Per-master read serviced memory accesses
system.mem_ctrls0.masterReadAccesses::.l2.prefetcher         1386                       # Per-master read serviced memory accesses
system.mem_ctrls0.masterWriteAccesses::.writebacks       116761                       # Per-master write serviced memory accesses
system.mem_ctrls0.masterReadTotalLat::.cpu.inst     13069378                       # Per-master read total memory access latency
system.mem_ctrls0.masterReadTotalLat::.cpu.data   6304714761                       # Per-master read total memory access latency
system.mem_ctrls0.masterReadTotalLat::.l2.prefetcher     58158089                       # Per-master read total memory access latency
system.mem_ctrls0.masterWriteTotalLat::.writebacks 5288575401830                       # Per-master write total memory access latency
system.mem_ctrls0.masterReadAvgLat::.cpu.inst     35227.43                       # Per-master read average memory access latency
system.mem_ctrls0.masterReadAvgLat::.cpu.data     47592.09                       # Per-master read average memory access latency
system.mem_ctrls0.masterReadAvgLat::.l2.prefetcher     41961.10                       # Per-master read average memory access latency
system.mem_ctrls0.masterWriteAvgLat::.writebacks  45294022.85                       # Per-master write average memory access latency
system.mem_ctrls0.totQLat                  4028305924                       # Total ticks spent queuing
system.mem_ctrls0.totMemAccLat             6375942228                       # Total ticks spent from burst creation until serviced by the DRAM
system.mem_ctrls0.totBusLat                 447194384                       # Total ticks spent in databus transfers
system.mem_ctrls0.avgQLat                    30014.50                       # Average queueing delay per DRAM burst
system.mem_ctrls0.avgBusLat                   3332.00                       # Average bus latency per DRAM burst
system.mem_ctrls0.avgMemAccLat               47506.50                       # Average memory access latency per DRAM burst
system.mem_ctrls0.avgRdBW                       85.90                       # Average DRAM read bandwidth in MiByte/s
system.mem_ctrls0.avgWrBW                       74.69                       # Average achieved write bandwidth in MiByte/s
system.mem_ctrls0.avgRdBWSys                    85.91                       # Average system read bandwidth in MiByte/s
system.mem_ctrls0.avgWrBWSys                    74.73                       # Average system write bandwidth in MiByte/s
system.mem_ctrls0.peakBW                     19207.00                       # Theoretical peak bandwidth in MiByte/s
system.mem_ctrls0.busUtil                        0.84                       # Data bus utilization in percentage
system.mem_ctrls0.busUtilRead                    0.45                       # Data bus utilization in percentage for reads
system.mem_ctrls0.busUtilWrite                   0.39                       # Data bus utilization in percentage for writes
system.mem_ctrls0.avgRdQLen                      1.12                       # Average read queue length when enqueuing
system.mem_ctrls0.avgWrQLen                     53.85                       # Average write queue length when enqueuing
system.mem_ctrls0.readRowHits                   22499                       # Number of row buffer hits during reads
system.mem_ctrls0.writeRowHits                  52339                       # Number of row buffer hits during writes
system.mem_ctrls0.readRowHitRate                16.76                       # Row buffer hit rate for reads
system.mem_ctrls0.writeRowHitRate               44.83                       # Row buffer hit rate for writes
system.mem_ctrls0.avgGap                    398418.28                       # Average gap between requests
system.mem_ctrls0.pageHitRate                   29.82                       # Row buffer hit rate, read and write combined
system.mem_ctrls0_0.actEnergy            274914870.048023                       # Energy for activate commands per rank (pJ)
system.mem_ctrls0_0.preEnergy            365495795.179184                       # Energy for precharge commands per rank (pJ)
system.mem_ctrls0_0.readEnergy           283034644.838354                       # Energy for read commands per rank (pJ)
system.mem_ctrls0_0.writeEnergy          219499924.896004                       # Energy for write commands per rank (pJ)
system.mem_ctrls0_0.refreshEnergy        17756385047.818230                       # Energy for refresh commands per rank (pJ)
system.mem_ctrls0_0.actBackEnergy        10511475591.254211                       # Energy for active background per rank (pJ)
system.mem_ctrls0_0.preBackEnergy        321188337.254411                       # Energy for precharge background per rank (pJ)
system.mem_ctrls0_0.actPowerDownEnergy   42785058712.166306                       # Energy for active power-down per rank (pJ)
system.mem_ctrls0_0.prePowerDownEnergy   8321647608.960158                       # Energy for precharge power-down per rank (pJ)
system.mem_ctrls0_0.selfRefreshEnergy    279006076.910400                       # Energy for self refresh per rank (pJ)
system.mem_ctrls0_0.totalEnergy          81124584229.180771                       # Total energy per rank (pJ)
system.mem_ctrls0_0.averagePower           811.245842                       # Core power per rank (mW)
system.mem_ctrls0_0.totalIdleTime         87126920405                       # Total Idle time Per DRAM Rank
system.mem_ctrls0_0.memoryStateTime::IDLE    129325818                       # Time in different power states
system.mem_ctrls0_0.memoryStateTime::REF   4485950000                       # Time in different power states
system.mem_ctrls0_0.memoryStateTime::SREF    153597340                       # Time in different power states
system.mem_ctrls0_0.memoryStateTime::PRE_PDN  17336768896                       # Time in different power states
system.mem_ctrls0_0.memoryStateTime::ACT   8257204557                       # Time in different power states
system.mem_ctrls0_0.memoryStateTime::ACT_PDN  69637153389                       # Time in different power states
system.mem_ctrls0_1.actEnergy            274219388.352025                       # Energy for activate commands per rank (pJ)
system.mem_ctrls0_1.preEnergy            364562868.499185                       # Energy for precharge commands per rank (pJ)
system.mem_ctrls0_1.readEnergy           281503545.523158                       # Energy for read commands per rank (pJ)
system.mem_ctrls0_1.writeEnergy          219120316.800004                       # Energy for write commands per rank (pJ)
system.mem_ctrls0_1.refreshEnergy        17763311935.954235                       # Energy for refresh commands per rank (pJ)
system.mem_ctrls0_1.actBackEnergy        10617757669.411034                       # Energy for active background per rank (pJ)
system.mem_ctrls0_1.preBackEnergy        318768505.574412                       # Energy for precharge background per rank (pJ)
system.mem_ctrls0_1.actPowerDownEnergy   42814676300.390442                       # Energy for active power-down per rank (pJ)
system.mem_ctrls0_1.prePowerDownEnergy   8257957895.040162                       # Energy for precharge power-down per rank (pJ)
system.mem_ctrls0_1.selfRefreshEnergy    241174647.537600                       # Energy for self refresh per rank (pJ)
system.mem_ctrls0_1.totalEnergy          81159613295.947388                       # Total energy per rank (pJ)
system.mem_ctrls0_1.averagePower           811.596133                       # Core power per rank (mW)
system.mem_ctrls0_1.totalIdleTime         87006201582                       # Total Idle time Per DRAM Rank
system.mem_ctrls0_1.memoryStateTime::IDLE    124946571                       # Time in different power states
system.mem_ctrls0_1.memoryStateTime::REF   4487700000                       # Time in different power states
system.mem_ctrls0_1.memoryStateTime::SREF    117057680                       # Time in different power states
system.mem_ctrls0_1.memoryStateTime::PRE_PDN  17204026868                       # Time in different power states
system.mem_ctrls0_1.memoryStateTime::ACT   8381013499                       # Time in different power states
system.mem_ctrls0_1.memoryStateTime::ACT_PDN  69685255382                       # Time in different power states
system.mem_ctrls1.pwrStateResidencyTicks::UNDEFINED 100000000000                       # Cumulative time (in ticks) in various power states
system.mem_ctrls1.bytes_read::.cpu.inst         22592                       # Number of bytes read from this memory
system.mem_ctrls1.bytes_read::.cpu.data       8464192                       # Number of bytes read from this memory
system.mem_ctrls1.bytes_read::.l2.prefetcher        88256                       # Number of bytes read from this memory
system.mem_ctrls1.bytes_read::total           8575040                       # Number of bytes read from this memory
system.mem_ctrls1.bytes_inst_read::.cpu.inst        22592                       # Number of instructions bytes read from this memory
system.mem_ctrls1.bytes_inst_read::total        22592                       # Number of instructions bytes read from this memory
system.mem_ctrls1.bytes_written::.writebacks      7470272                       # Number of bytes written to this memory
system.mem_ctrls1.bytes_written::total        7470272                       # Number of bytes written to this memory
system.mem_ctrls1.num_reads::.cpu.inst            353                       # Number of read requests responded to by this memory
system.mem_ctrls1.num_reads::.cpu.data         132253                       # Number of read requests responded to by this memory
system.mem_ctrls1.num_reads::.l2.prefetcher         1379                       # Number of read requests responded to by this memory
system.mem_ctrls1.num_reads::total             133985                       # Number of read requests responded to by this memory
system.mem_ctrls1.num_writes::.writebacks       116723                       # Number of write requests responded to by this memory
system.mem_ctrls1.num_writes::total            116723                       # Number of write requests responded to by this memory
system.mem_ctrls1.bw_read::.cpu.inst           225920                       # Total read bandwidth from this memory (bytes/s)
system.mem_ctrls1.bw_read::.cpu.data         84641920                       # Total read bandwidth from this memory (bytes/s)
system.mem_ctrls1.bw_read::.l2.prefetcher       882560                       # Total read bandwidth from this memory (bytes/s)
system.mem_ctrls1.bw_read::total             85750400                       # Total read bandwidth from this memory (bytes/s)
system.mem_ctrls1.bw_inst_read::.cpu.inst       225920                       # Instruction read bandwidth from this memory (bytes/s)
system.mem_ctrls1.bw_inst_read::total          225920                       # Instruction read bandwidth from this memory (bytes/s)
system.mem_ctrls1.bw_write::.writebacks      74702720                       # Write bandwidth from this memory (bytes/s)
system.mem_ctrls1.bw_write::total            74702720                       # Write bandwidth from this memory (bytes/s)
system.mem_ctrls1.bw_total::.writebacks      74702720                       # Total bandwidth to/from this memory (bytes/s)
system.mem_ctrls1.bw_total::.cpu.inst          225920                       # Total bandwidth to/from this memory (bytes/s)
system.mem_ctrls1.bw_total::.cpu.data        84641920                       # Total bandwidth to/from this memory (bytes/s)
system.mem_ctrls1.bw_total::.l2.prefetcher       882560                       # Total bandwidth to/from this memory (bytes/s)
system.mem_ctrls1.bw_total::total           160453120                       # Total bandwidth to/from this memory (bytes/s)
system.mem_ctrls1.avgPriority_.writebacks::samples    116723.00                       # Average QoS priority value for accepted requests
system.mem_ctrls1.avgPriority_.cpu.inst::samples       353.00                       # Average QoS priority value for accepted requests
system.mem_ctrls1.avgPriority_.cpu.data::samples    132239.00                       # Average QoS priority value for accepted requests
system.mem_ctrls1.avgPriority_.l2.prefetcher::samples      1379.00                       # Average QoS priority value for accepted requests
system.mem_ctrls1.priorityMinLatency     0.000000017492                       # per QoS priority minimum request to response latency (s)
system.mem_ctrls1.priorityMaxLatency     0.001906962652                       # per QoS priority maximum request to response latency (s)
system.mem_ctrls1.numReadWriteTurnArounds         6591                       # Number of turnarounds from READ to WRITE
system.mem_ctrls1.numWriteReadTurnArounds         6591                       # Number of turnarounds from WRITE to READ
system.mem_ctrls1.numStayReadState             405425                       # Number of times bus staying in READ state
system.mem_ctrls1.numStayWriteState            110098                       # Number of times bus staying in WRITE state
system.mem_ctrls1.readReqs                     133985                       # Number of read requests accepted
system.mem_ctrls1.writeReqs                    116723                       # Number of write requests accepted
system.mem_ctrls1.readBursts                   133985                       # Number of DRAM read bursts, including those serviced by the write queue
system.mem_ctrls1.writeBursts                  116723                       # Number of DRAM write bursts, including those merged in the write queue
system.mem_ctrls1.bytesReadDRAM               8574144                       # Total number of bytes read from DRAM
system.mem_ctrls1.bytesReadWrQ                    896                       # Total number of bytes read from write queue
system.mem_ctrls1.bytesWritten                7466752                       # Total number of bytes written to DRAM
system.mem_ctrls1.bytesReadSys                8575040                       # Total read bytes from the system interface side
system.mem_ctrls1.bytesWrittenSys             7470272                       # Total written bytes from the system interface side
system.mem_ctrls1.servicedByWrQ                    14                       # Number of DRAM read bursts serviced by the write queue
system.mem_ctrls1.mergedWrBursts                    0                       # Number of DRAM write bursts merged with an existing one
system.mem_ctrls1.neitherReadNorWriteReqs            0                       # Number of requests that are neither read nor write
system.mem_ctrls1.perBankRdBursts::0             4326                       # Per bank write bursts
system.mem_ctrls1.perBankRdBursts::1             4307                       # Per bank write bursts
system.mem_ctrls1.perBankRdBursts::2             4270                       # Per bank write bursts
system.mem_ctrls1.perBankRdBursts::3             4269                       # Per bank write bursts
system.mem_ctrls1.perBankRdBursts::4             4250                       # Per bank write bursts
system.mem_ctrls1.perBankRdBursts::5             4148                       # Per bank write bursts
system.mem_ctrls1.perBankRdBursts::6             4097                       # Per bank write bursts
system.mem_ctrls1.perBankRdBursts::7             4051                       # Per bank write bursts
system.mem_ctrls1.perBankRdBursts::8             4120                       # Per bank write bursts
system.mem_ctrls1.perBankRdBursts::9             4059                       # Per bank write bursts
system.mem_ctrls1.perBankRdBursts::10            4066                       # Per bank write bursts
system.mem_ctrls1.perBankRdBursts::11            4155                       # Per bank write bursts
system.mem_ctrls1.perBankRdBursts::12            4206                       # Per bank write bursts
system.mem_ctrls1.perBankRdBursts::13            4182                       # Per bank write bursts
system.mem_ctrls1.perBankRdBursts::14            4256                       # Per bank write bursts
system.mem_ctrls1.perBankRdBursts::15            4348                       # Per bank write bursts
system.mem_ctrls1.perBankRdBursts::16            4351                       # Per bank write bursts
system.mem_ctrls1.perBankRdBursts::17            4407                       # Per bank write bursts
system.mem_ctrls1.perBankRdBursts::18            4356                       # Per bank write bursts
system.mem_ctrls1.perBankRdBursts::19            4329                       # Per bank write bursts
system.mem_ctrls1.perBankRdBursts::20            4234                       # Per bank write bursts
system.mem_ctrls1.perBankRdBursts::21            4193                       # Per bank write bursts
system.mem_ctrls1.perBankRdBursts::22            4128                       # Per bank write bursts
system.mem_ctrls1.perBankRdBursts::23            4150                       # Per bank write bursts
system.mem_ctrls1.perBankRdBursts::24            4054                       # Per bank write bursts
system.mem_ctrls1.perBankRdBursts::25            4053                       # Per bank write bursts
system.mem_ctrls1.perBankRdBursts::26            4025                       # Per bank write bursts
system.mem_ctrls1.perBankRdBursts::27            3997                       # Per bank write bursts
system.mem_ctrls1.perBankRdBursts::28            4021                       # Per bank write bursts
system.mem_ctrls1.perBankRdBursts::29            4165                       # Per bank write bursts
system.mem_ctrls1.perBankRdBursts::30            4161                       # Per bank write bursts
system.mem_ctrls1.perBankRdBursts::31            4237                       # Per bank write bursts
system.mem_ctrls1.perBankWrBursts::0             3786                       # Per bank write bursts
system.mem_ctrls1.perBankWrBursts::1             3784                       # Per bank write bursts
system.mem_ctrls1.perBankWrBursts::2             3738                       # Per bank write bursts
system.mem_ctrls1.perBankWrBursts::3             3681                       # Per bank write bursts
system.mem_ctrls1.perBankWrBursts::4             3685                       # Per bank write bursts
system.mem_ctrls1.perBankWrBursts::5             3580                       # Per bank write bursts
system.mem_ctrls1.perBankWrBursts::6             3557                       # Per bank write bursts
system.mem_ctrls1.perBankWrBursts::7             3497                       # Per bank write bursts
system.mem_ctrls1.perBankWrBursts::8             3553                       # Per bank write bursts
system.mem_ctrls1.perBankWrBursts::9             3549                       # Per bank write bursts
system.mem_ctrls1.perBankWrBursts::10            3546                       # Per bank write bursts
system.mem_ctrls1.perBankWrBursts::11            3629                       # Per bank write bursts
system.mem_ctrls1.perBankWrBursts::12            3643                       # Per bank write bursts
system.mem_ctrls1.perBankWrBursts::13            3676                       # Per bank write bursts
system.mem_ctrls1.perBankWrBursts::14            3734                       # Per bank write bursts
system.mem_ctrls1.perBankWrBursts::15            3755                       # Per bank write bursts
system.mem_ctrls1.perBankWrBursts::16            3808                       # Per bank write bursts
system.mem_ctrls1.perBankWrBursts::17            3862                       # Per bank write bursts
system.mem_ctrls1.perBankWrBursts::18            3818                       # Per bank write bursts
system.mem_ctrls1.perBankWrBursts::19            3782                       # Per bank write bursts
system.mem_ctrls1.perBankWrBursts::20            3710                       # Per bank write bursts
system.mem_ctrls1.perBankWrBursts::21            3664                       # Per bank write bursts
system.mem_ctrls1.perBankWrBursts::22            3572                       # Per bank write bursts
system.mem_ctrls1.perBankWrBursts::23            3582                       # Per bank write bursts
system.mem_ctrls1.perBankWrBursts::24            3561                       # Per bank write bursts
system.mem_ctrls1.perBankWrBursts::25            3499                       # Per bank write bursts
system.mem_ctrls1.perBankWrBursts::26            3495                       # Per bank write bursts
system.mem_ctrls1.perBankWrBursts::27            3455                       # Per bank write bursts
system.mem_ctrls1.perBankWrBursts::28            3506                       # Per bank write bursts
system.mem_ctrls1.perBankWrBursts::29            3589                       # Per bank write bursts
system.mem_ctrls1.perBankWrBursts::30            3630                       # Per bank write bursts
system.mem_ctrls1.perBankWrBursts::31            3742                       # Per bank write bursts
system.mem_ctrls1.numRdRetry                        0                       # Number of times read queue was full causing retry
system.mem_ctrls1.numWrRetry                        0                       # Number of times write queue was full causing retry
system.mem_ctrls1.totGap                  99999487500                       # Total gap between requests
system.mem_ctrls1.readPktSize::0                    0                       # Read request sizes (log2)
system.mem_ctrls1.readPktSize::1                    0                       # Read request sizes (log2)
system.mem_ctrls1.readPktSize::2                    0                       # Read request sizes (log2)
system.mem_ctrls1.readPktSize::3                    0                       # Read request sizes (log2)
system.mem_ctrls1.readPktSize::4                    0                       # Read request sizes (log2)
system.mem_ctrls1.readPktSize::5                    0                       # Read request sizes (log2)
system.mem_ctrls1.readPktSize::6               133985                       # Read request sizes (log2)
system.mem_ctrls1.writePktSize::0                   0                       # Write request sizes (log2)
system.mem_ctrls1.writePktSize::1                   0                       # Write request sizes (log2)
system.mem_ctrls1.writePktSize::2                   0                       # Write request sizes (log2)
system.mem_ctrls1.writePktSize::3                   0                       # Write request sizes (log2)
system.mem_ctrls1.writePktSize::4                   0                       # Write request sizes (log2)
system.mem_ctrls1.writePktSize::5                   0                       # Write request sizes (log2)
system.mem_ctrls1.writePktSize::6              116723                       # Write request sizes (log2)
system.mem_ctrls1.rdQLenPdf::0                 119813                       # What read queue length does an incoming req see
system.mem_ctrls1.rdQLenPdf::1                  12294                       # What read queue length does an incoming req see
system.mem_ctrls1.rdQLenPdf::2                   1709                       # What read queue length does an incoming req see
system.mem_ctrls1.rdQLenPdf::3                    152                       # What read queue length does an incoming req see
system.mem_ctrls1.rdQLenPdf::4                      3                       # What read queue length does an incoming req see
system.mem_ctrls1.rdQLenPdf::5                      0                       # What read queue length does an incoming req see
system.mem_ctrls1.rdQLenPdf::6                      0                       # What read queue length does an incoming req see
system.mem_ctrls1.rdQLenPdf::7                      0                       # What read queue length does an incoming req see
system.mem_ctrls1.rdQLenPdf::8                      0                       # What read queue length does an incoming req see
system.mem_ctrls1.rdQLenPdf::9                      0                       # What read queue length does an incoming req see
system.mem_ctrls1.rdQLenPdf::10                     0                       # What read queue length does an incoming req see
system.mem_ctrls1.rdQLenPdf::11                     0                       # What read queue length does an incoming req see
system.mem_ctrls1.rdQLenPdf::12                     0                       # What read queue length does an incoming req see
system.mem_ctrls1.rdQLenPdf::13                     0                       # What read queue length does an incoming req see
system.mem_ctrls1.rdQLenPdf::14                     0                       # What read queue length does an incoming req see
system.mem_ctrls1.rdQLenPdf::15                     0                       # What read queue length does an incoming req see
system.mem_ctrls1.rdQLenPdf::16                     0                       # What read queue length does an incoming req see
system.mem_ctrls1.rdQLenPdf::17                     0                       # What read queue length does an incoming req see
system.mem_ctrls1.rdQLenPdf::18                     0                       # What read queue length does an incoming req see
system.mem_ctrls1.rdQLenPdf::19                     0                       # What read queue length does an incoming req see
system.mem_ctrls1.rdQLenPdf::20                     0                       # What read queue length does an incoming req see
system.mem_ctrls1.rdQLenPdf::21                     0                       # What read queue length does an incoming req see
system.mem_ctrls1.rdQLenPdf::22                     0                       # What read queue length does an incoming req see
system.mem_ctrls1.rdQLenPdf::23                     0                       # What read queue length does an incoming req see
system.mem_ctrls1.rdQLenPdf::24                     0                       # What read queue length does an incoming req see
system.mem_ctrls1.rdQLenPdf::25                     0                       # What read queue length does an incoming req see
system.mem_ctrls1.rdQLenPdf::26                     0                       # What read queue length does an incoming req see
system.mem_ctrls1.rdQLenPdf::27                     0                       # What read queue length does an incoming req see
system.mem_ctrls1.rdQLenPdf::28                     0                       # What read queue length does an incoming req see
system.mem_ctrls1.rdQLenPdf::29                     0                       # What read queue length does an incoming req see
system.mem_ctrls1.rdQLenPdf::30                     0                       # What read queue length does an incoming req see
system.mem_ctrls1.rdQLenPdf::31                     0                       # What read queue length does an incoming req see
system.mem_ctrls1.rdQLenPdf::32                     0                       # What read queue length does an incoming req see
system.mem_ctrls1.rdQLenPdf::33                     0                       # What read queue length does an incoming req see
system.mem_ctrls1.rdQLenPdf::34                     0                       # What read queue length does an incoming req see
system.mem_ctrls1.rdQLenPdf::35                     0                       # What read queue length does an incoming req see
system.mem_ctrls1.rdQLenPdf::36                     0                       # What read queue length does an incoming req see
system.mem_ctrls1.rdQLenPdf::37                     0                       # What read queue length does an incoming req see
system.mem_ctrls1.rdQLenPdf::38                     0                       # What read queue length does an incoming req see
system.mem_ctrls1.rdQLenPdf::39                     0                       # What read queue length does an incoming req see
system.mem_ctrls1.rdQLenPdf::40                     0                       # What read queue length does an incoming req see
system.mem_ctrls1.rdQLenPdf::41                     0                       # What read queue length does an incoming req see
system.mem_ctrls1.rdQLenPdf::42                     0                       # What read queue length does an incoming req see
system.mem_ctrls1.rdQLenPdf::43                     0                       # What read queue length does an incoming req see
system.mem_ctrls1.rdQLenPdf::44                     0                       # What read queue length does an incoming req see
system.mem_ctrls1.rdQLenPdf::45                     0                       # What read queue length does an incoming req see
system.mem_ctrls1.rdQLenPdf::46                     0                       # What read queue length does an incoming req see
system.mem_ctrls1.rdQLenPdf::47                     0                       # What read queue length does an incoming req see
system.mem_ctrls1.rdQLenPdf::48                     0                       # What read queue length does an incoming req see
system.mem_ctrls1.rdQLenPdf::49                     0                       # What read queue length does an incoming req see
system.mem_ctrls1.rdQLenPdf::50                     0                       # What read queue length does an incoming req see
system.mem_ctrls1.rdQLenPdf::51                     0                       # What read queue length does an incoming req see
system.mem_ctrls1.rdQLenPdf::52                     0                       # What read queue length does an incoming req see
system.mem_ctrls1.rdQLenPdf::53                     0                       # What read queue length does an incoming req see
system.mem_ctrls1.rdQLenPdf::54                     0                       # What read queue length does an incoming req see
system.mem_ctrls1.rdQLenPdf::55                     0                       # What read queue length does an incoming req see
system.mem_ctrls1.rdQLenPdf::56                     0                       # What read queue length does an incoming req see
system.mem_ctrls1.rdQLenPdf::57                     0                       # What read queue length does an incoming req see
system.mem_ctrls1.rdQLenPdf::58                     0                       # What read queue length does an incoming req see
system.mem_ctrls1.rdQLenPdf::59                     0                       # What read queue length does an incoming req see
system.mem_ctrls1.rdQLenPdf::60                     0                       # What read queue length does an incoming req see
system.mem_ctrls1.rdQLenPdf::61                     0                       # What read queue length does an incoming req see
system.mem_ctrls1.rdQLenPdf::62                     0                       # What read queue length does an incoming req see
system.mem_ctrls1.rdQLenPdf::63                     0                       # What read queue length does an incoming req see
system.mem_ctrls1.wrQLenPdf::0                      1                       # What write queue length does an incoming req see
system.mem_ctrls1.wrQLenPdf::1                      1                       # What write queue length does an incoming req see
system.mem_ctrls1.wrQLenPdf::2                      1                       # What write queue length does an incoming req see
system.mem_ctrls1.wrQLenPdf::3                      1                       # What write queue length does an incoming req see
system.mem_ctrls1.wrQLenPdf::4                      1                       # What write queue length does an incoming req see
system.mem_ctrls1.wrQLenPdf::5                      1                       # What write queue length does an incoming req see
system.mem_ctrls1.wrQLenPdf::6                      1                       # What write queue length does an incoming req see
system.mem_ctrls1.wrQLenPdf::7                      1                       # What write queue length does an incoming req see
system.mem_ctrls1.wrQLenPdf::8                      1                       # What write queue length does an incoming req see
system.mem_ctrls1.wrQLenPdf::9                      1                       # What write queue length does an incoming req see
system.mem_ctrls1.wrQLenPdf::10                     1                       # What write queue length does an incoming req see
system.mem_ctrls1.wrQLenPdf::11                     1                       # What write queue length does an incoming req see
system.mem_ctrls1.wrQLenPdf::12                     1                       # What write queue length does an incoming req see
system.mem_ctrls1.wrQLenPdf::13                     1                       # What write queue length does an incoming req see
system.mem_ctrls1.wrQLenPdf::14                     1                       # What write queue length does an incoming req see
system.mem_ctrls1.wrQLenPdf::15                     1                       # What write queue length does an incoming req see
system.mem_ctrls1.wrQLenPdf::16                     1                       # What write queue length does an incoming req see
system.mem_ctrls1.wrQLenPdf::17                     1                       # What write queue length does an incoming req see
system.mem_ctrls1.wrQLenPdf::18                     1                       # What write queue length does an incoming req see
system.mem_ctrls1.wrQLenPdf::19                     1                       # What write queue length does an incoming req see
system.mem_ctrls1.wrQLenPdf::20                     1                       # What write queue length does an incoming req see
system.mem_ctrls1.wrQLenPdf::21                     1                       # What write queue length does an incoming req see
system.mem_ctrls1.wrQLenPdf::22                     1                       # What write queue length does an incoming req see
system.mem_ctrls1.wrQLenPdf::23                     1                       # What write queue length does an incoming req see
[...]
system.l2.overall_miss_rate::.cpu.data       0.850266                       # miss rate for overall accesses
system.l2.overall_miss_rate::total           0.831215                       # miss rate for overall accesses
system.l2.ReadExReq_avg_miss_latency::.cpu.data 118988.771584                       # average ReadExReq miss latency
system.l2.ReadExReq_avg_miss_latency::total 118988.771584                       # average ReadExReq miss latency
system.l2.ReadCleanReq_avg_miss_latency::.cpu.inst 106587.016575                       # average ReadCleanReq miss latency
system.l2.ReadCleanReq_avg_miss_latency::total 106587.016575                       # average ReadCleanReq miss latency
system.l2.ReadSharedReq_avg_miss_latency::.cpu.data 127917.216678                       # average ReadSharedReq miss latency
system.l2.ReadSharedReq_avg_miss_latency::total 127917.216678                       # average ReadSharedReq miss latency
system.l2.demand_avg_miss_latency::.cpu.inst 106587.016575                       # average overall miss latency
system.l2.demand_avg_miss_latency::.cpu.data 120905.038020                       # average overall miss latency
system.l2.demand_avg_miss_latency::total 120865.986566                       # average overall miss latency
system.l2.overall_avg_miss_latency::.cpu.inst 106587.016575                       # average overall miss latency
system.l2.overall_avg_miss_latency::.cpu.data 120905.038020                       # average overall miss latency
system.l2.overall_avg_miss_latency::total 120865.986566                       # average overall miss latency
system.l2.blocked_cycles::no_mshrs                  0                       # number of cycles access was blocked
system.l2.blocked_cycles::no_targets                0                       # number of cycles access was blocked
system.l2.blocked::no_mshrs                         0                       # number of cycles access was blocked
system.l2.blocked::no_targets                       0                       # number of cycles access was blocked
system.l2.avg_blocked_cycles::no_mshrs            nan                       # average number of cycles each access was blocked
system.l2.avg_blocked_cycles::no_targets          nan                       # average number of cycles each access was blocked
system.l2.unused_prefetches                        18                       # number of HardPF blocks evicted w/o reference
system.l2.writebacks::.writebacks              233484                       # number of writebacks
system.l2.writebacks::total                    233484                       # number of writebacks
system.l2.HardPFReq_mshr_misses::.l2.prefetcher         4157                       # number of HardPFReq MSHR misses
system.l2.HardPFReq_mshr_misses::total           4157                       # number of HardPFReq MSHR misses
system.l2.ReadExReq_mshr_misses::.cpu.data       207910                       # number of ReadExReq MSHR misses
system.l2.ReadExReq_mshr_misses::total         207910                       # number of ReadExReq MSHR misses
system.l2.ReadCleanReq_mshr_misses::.cpu.inst          724                       # number of ReadCleanReq MSHR misses
system.l2.ReadCleanReq_mshr_misses::total          724                       # number of ReadCleanReq MSHR misses
system.l2.ReadSharedReq_mshr_misses::.cpu.data        56817                       # number of ReadSharedReq MSHR misses
system.l2.ReadSharedReq_mshr_misses::total        56817                       # number of ReadSharedReq MSHR misses
system.l2.demand_mshr_misses::.cpu.inst           724                       # number of demand (read+write) MSHR misses
system.l2.demand_mshr_misses::.cpu.data        264727                       # number of demand (read+write) MSHR misses
system.l2.demand_mshr_misses::total            265451                       # number of demand (read+write) MSHR misses
system.l2.overall_mshr_misses::.cpu.inst          724                       # number of overall MSHR misses
system.l2.overall_mshr_misses::.cpu.data       264727                       # number of overall MSHR misses
system.l2.overall_mshr_misses::.l2.prefetcher         4157                       # number of overall MSHR misses
system.l2.overall_mshr_misses::total           269608                       # number of overall MSHR misses
system.l2.HardPFReq_mshr_miss_latency::.l2.prefetcher    210595412                       # number of HardPFReq MSHR miss cycles
system.l2.HardPFReq_mshr_miss_latency::total    210595412                       # number of HardPFReq MSHR miss cycles
system.l2.ReadExReq_mshr_miss_latency::.cpu.data  20372845500                       # number of ReadExReq MSHR miss cycles
system.l2.ReadExReq_mshr_miss_latency::total  20372845500                       # number of ReadExReq MSHR miss cycles
system.l2.ReadCleanReq_mshr_miss_latency::.cpu.inst     61965000                       # number of ReadCleanReq MSHR miss cycles
system.l2.ReadCleanReq_mshr_miss_latency::total     61965000                       # number of ReadCleanReq MSHR miss cycles
system.l2.ReadSharedReq_mshr_miss_latency::.cpu.data   6074715500                       # number of ReadSharedReq MSHR miss cycles
system.l2.ReadSharedReq_mshr_miss_latency::total   6074715500                       # number of ReadSharedReq MSHR miss cycles
system.l2.demand_mshr_miss_latency::.cpu.inst     61965000                       # number of demand (read+write) MSHR miss cycles
system.l2.demand_mshr_miss_latency::.cpu.data  26447561000                       # number of demand (read+write) MSHR miss cycles
system.l2.demand_mshr_miss_latency::total  26509526000                       # number of demand (read+write) MSHR miss cycles
system.l2.overall_mshr_miss_latency::.cpu.inst     61965000                       # number of overall MSHR miss cycles
system.l2.overall_mshr_miss_latency::.cpu.data  26447561000                       # number of overall MSHR miss cycles
system.l2.overall_mshr_miss_latency::.l2.prefetcher    210595412                       # number of overall MSHR miss cycles
system.l2.overall_mshr_miss_latency::total  26720121412                       # number of overall MSHR miss cycles
system.l2.HardPFReq_mshr_miss_rate::.l2.prefetcher          inf                       # mshr miss rate for HardPFReq accesses
system.l2.HardPFReq_mshr_miss_rate::total          inf                       # mshr miss rate for HardPFReq accesses
system.l2.ReadExReq_mshr_miss_rate::.cpu.data     0.985103                       # mshr miss rate for ReadExReq accesses
system.l2.ReadExReq_mshr_miss_rate::total     0.985103                       # mshr miss rate for ReadExReq accesses
system.l2.ReadCleanReq_mshr_miss_rate::.cpu.inst     0.090421                       # mshr miss rate for ReadCleanReq accesses
system.l2.ReadCleanReq_mshr_miss_rate::total     0.090421                       # mshr miss rate for ReadCleanReq accesses
system.l2.ReadSharedReq_mshr_miss_rate::.cpu.data     0.566516                       # mshr miss rate for ReadSharedReq accesses
system.l2.ReadSharedReq_mshr_miss_rate::total     0.566516                       # mshr miss rate for ReadSharedReq accesses
system.l2.demand_mshr_miss_rate::.cpu.inst     0.090421                       # mshr miss rate for demand accesses
system.l2.demand_mshr_miss_rate::.cpu.data     0.850266                       # mshr miss rate for demand accesses
system.l2.demand_mshr_miss_rate::total       0.831215                       # mshr miss rate for demand accesses
system.l2.overall_mshr_miss_rate::.cpu.inst     0.090421                       # mshr miss rate for overall accesses
system.l2.overall_mshr_miss_rate::.cpu.data     0.850266                       # mshr miss rate for overall accesses
system.l2.overall_mshr_miss_rate::.l2.prefetcher          inf                       # mshr miss rate for overall accesses
system.l2.overall_mshr_miss_rate::total      0.844232                       # mshr miss rate for overall accesses
system.l2.HardPFReq_avg_mshr_miss_latency::.l2.prefetcher 50660.431080                       # average HardPFReq mshr miss latency
system.l2.HardPFReq_avg_mshr_miss_latency::total 50660.431080                       # average HardPFReq mshr miss latency
system.l2.ReadExReq_avg_mshr_miss_latency::.cpu.data 97988.771584                       # average ReadExReq mshr miss latency
system.l2.ReadExReq_avg_mshr_miss_latency::total 97988.771584                       # average ReadExReq mshr miss latency
system.l2.ReadCleanReq_avg_mshr_miss_latency::.cpu.inst 85587.016575                       # average ReadCleanReq mshr miss latency
system.l2.ReadCleanReq_avg_mshr_miss_latency::total 85587.016575                       # average ReadCleanReq mshr miss latency
system.l2.ReadSharedReq_avg_mshr_miss_latency::.cpu.data 106917.216678                       # average ReadSharedReq mshr miss latency
system.l2.ReadSharedReq_avg_mshr_miss_latency::total 106917.216678                       # average ReadSharedReq mshr miss latency
system.l2.demand_avg_mshr_miss_latency::.cpu.inst 85587.016575                       # average overall mshr miss latency
system.l2.demand_avg_mshr_miss_latency::.cpu.data 99905.038020                       # average overall mshr miss latency
system.l2.demand_avg_mshr_miss_latency::total 99865.986566                       # average overall mshr miss latency
system.l2.overall_avg_mshr_miss_latency::.cpu.inst 85587.016575                       # average overall mshr miss latency
system.l2.overall_avg_mshr_miss_latency::.cpu.data 99905.038020                       # average overall mshr miss latency
system.l2.overall_avg_mshr_miss_latency::.l2.prefetcher 50660.431080                       # average overall mshr miss latency
system.l2.overall_avg_mshr_miss_latency::total 99107.301757                       # average overall mshr miss latency
system.l2.replacements                         233845                       # number of replacements
system.membus.snoop_filter.tot_requests        502061                       # Total number of requests made to the snoop filter.
system.membus.snoop_filter.hit_single_requests       234099                       # Number of requests hitting in the snoop filter with a single holder of the requested data.
system.membus.snoop_filter.hit_multi_requests            0                       # Number of requests hitting in the snoop filter with multiple (>1) holders of the requested data.
system.membus.snoop_filter.tot_snoops               0                       # Total number of snoops made to the snoop filter.
system.membus.snoop_filter.hit_single_snoops            0                       # Number of snoops hitting in the snoop filter with a single holder of the requested data.
system.membus.snoop_filter.hit_multi_snoops            0                       # Number of snoops hitting in the snoop filter with multiple (>1) holders of the requested data.
system.membus.pwrStateResidencyTicks::UNDEFINED 100000000000                       # Cumulative time (in ticks) in various power states
system.membus.trans_dist::ReadResp              60306                       # Transaction distribution
system.membus.trans_dist::WritebackDirty       233484                       # Transaction distribution
system.membus.trans_dist::CleanEvict              361                       # Transaction distribution
system.membus.trans_dist::ReadExReq            207910                       # Transaction distribution
system.membus.trans_dist::ReadExResp           207910                       # Transaction distribution
system.membus.trans_dist::ReadCleanReq          60306                       # Transaction distribution
system.membus.pkt_count_system.l2.mem_side::system.mem_ctrls0.port       385416                       # Packet count per connected master and slave (bytes)
system.membus.pkt_count_system.l2.mem_side::system.mem_ctrls1.port       384861                       # Packet count per connected master and slave (bytes)
system.membus.pkt_count_system.l2.mem_side::total       770277                       # Packet count per connected master and slave (bytes)
system.membus.pkt_count::total                 770277                       # Packet count per connected master and slave (bytes)
system.membus.pkt_size_system.l2.mem_side::system.mem_ctrls0.port     16063488                       # Cumulative packet size per connected master and slave (bytes)
system.membus.pkt_size_system.l2.mem_side::system.mem_ctrls1.port     16045312                       # Cumulative packet size per connected master and slave (bytes)
system.membus.pkt_size_system.l2.mem_side::total     32108800                       # Cumulative packet size per connected master and slave (bytes)
system.membus.pkt_size::total                32108800                       # Cumulative packet size per connected master and slave (bytes)
system.membus.snoops                                0                       # Total snoops (count)
system.membus.snoopTraffic                          0                       # Total snoop traffic (bytes)
system.membus.snoop_fanout::samples            268216                       # Request fanout histogram
system.membus.snoop_fanout::mean                    0                       # Request fanout histogram
system.membus.snoop_fanout::stdev                   0                       # Request fanout histogram
system.membus.snoop_fanout::underflows              0      0.00%      0.00% # Request fanout histogram
system.membus.snoop_fanout::0                  268216    100.00%    100.00% # Request fanout histogram
system.membus.snoop_fanout::1                       0      0.00%    100.00% # Request fanout histogram
system.membus.snoop_fanout::overflows               0      0.00%    100.00% # Request fanout histogram
system.membus.snoop_fanout::min_value               0                       # Request fanout histogram
system.membus.snoop_fanout::max_value               0                       # Request fanout histogram
system.membus.snoop_fanout::total              268216                       # Request fanout histogram
system.membus.reqLayer2.occupancy           743915245                       # Layer occupancy (ticks)
system.membus.reqLayer2.utilization               0.7                       # Layer utilization (%)
system.membus.reqLayer3.occupancy           743451708                       # Layer occupancy (ticks)
system.membus.reqLayer3.utilization               0.7                       # Layer utilization (%)
system.membus.respLayer1.occupancy         1427364555                       # Layer occupancy (ticks)
system.membus.respLayer1.utilization              1.4                       # Layer utilization (%)
system.tol2bus.snoop_filter.tot_requests       637242                       # Total number of requests made to the snoop filter.
system.tol2bus.snoop_filter.hit_single_requests       317890                       # Number of requests hitting in the snoop filter with a single holder of the requested data.
system.tol2bus.snoop_filter.hit_multi_requests          348                       # Number of requests hitting in the snoop filter with multiple (>1) holders of the requested data.
system.tol2bus.snoop_filter.tot_snoops           1392                       # Total number of snoops made to the snoop filter.
system.tol2bus.snoop_filter.hit_single_snoops         1392                       # Number of snoops hitting in the snoop filter with a single holder of the requested data.
system.tol2bus.snoop_filter.hit_multi_snoops            0                       # Number of snoops hitting in the snoop filter with multiple (>1) holders of the requested data.
system.tol2bus.pwrStateResidencyTicks::UNDEFINED 100000000000                       # Cumulative time (in ticks) in various power states
system.tol2bus.trans_dist::ReadResp            108299                       # Transaction distribution
system.tol2bus.trans_dist::WritebackDirty       524656                       # Transaction distribution
system.tol2bus.trans_dist::WritebackClean        26717                       # Transaction distribution
system.tol2bus.trans_dist::CleanEvict             361                       # Transaction distribution
system.tol2bus.trans_dist::HardPFReq             5228                       # Transaction distribution
system.tol2bus.trans_dist::ReadExReq           211054                       # Transaction distribution
system.tol2bus.trans_dist::ReadExResp          211054                       # Transaction distribution
system.tol2bus.trans_dist::ReadCleanReq          8007                       # Transaction distribution
system.tol2bus.trans_dist::ReadSharedReq       100292                       # Transaction distribution
system.tol2bus.pkt_count_system.cpu.icache.mem_side::system.l2.cpu_side        23581                       # Packet count per connected master and slave (bytes)
system.tol2bus.pkt_count_system.cpu.dcache.mem_side::system.l2.cpu_side       933014                       # Packet count per connected master and slave (bytes)
system.tol2bus.pkt_count::total                956595                       # Packet count per connected master and slave (bytes)
system.tol2bus.pkt_size_system.cpu.icache.mem_side::system.l2.cpu_side       996736                       # Cumulative packet size per connected master and slave (bytes)
system.tol2bus.pkt_size_system.cpu.dcache.mem_side::system.l2.cpu_side     39786752                       # Cumulative packet size per connected master and slave (bytes)
system.tol2bus.pkt_size::total               40783488                       # Cumulative packet size per connected master and slave (bytes)
system.tol2bus.snoops                          239073                       # Total snoops (count)
system.tol2bus.snoopTraffic                  14942976                       # Total snoop traffic (bytes)
system.tol2bus.snoop_fanout::samples           558426                       # Request fanout histogram
system.tol2bus.snoop_fanout::mean            0.003118                       # Request fanout histogram
system.tol2bus.snoop_fanout::stdev           0.055749                       # Request fanout histogram
system.tol2bus.snoop_fanout::underflows             0      0.00%      0.00% # Request fanout histogram
system.tol2bus.snoop_fanout::0                 556685     99.69%     99.69% # Request fanout histogram
system.tol2bus.snoop_fanout::1                   1741      0.31%    100.00% # Request fanout histogram
system.tol2bus.snoop_fanout::2                      0      0.00%    100.00% # Request fanout histogram
system.tol2bus.snoop_fanout::3                      0      0.00%    100.00% # Request fanout histogram
system.tol2bus.snoop_fanout::4                      0      0.00%    100.00% # Request fanout histogram
system.tol2bus.snoop_fanout::overflows              0      0.00%    100.00% # Request fanout histogram
system.tol2bus.snoop_fanout::min_value              0                       # Request fanout histogram
system.tol2bus.snoop_fanout::max_value              1                       # Request fanout histogram
system.tol2bus.snoop_fanout::total             558426                       # Request fanout histogram
system.tol2bus.reqLayer0.occupancy          636510000                       # Layer occupancy (ticks)
system.tol2bus.reqLayer0.utilization              0.6                       # Layer utilization (%)
system.tol2bus.respLayer0.occupancy          12010500                       # Layer occupancy (ticks)
system.tol2bus.respLayer0.utilization             0.0                       # Layer utilization (%)
system.tol2bus.respLayer1.occupancy         467023491                       # Layer occupancy (ticks)
system.tol2bus.respLayer1.utilization             0.5                       # Layer utilization (%)

---------- End Simulation Statistics   ----------
