
---------- Begin Simulation Statistics ----------
sim_seconds                                  0.100000                       # Number of seconds simulated
sim_ticks                                100000000000                       # Number of ticks simulated
final_tick                               100000000000                       # Number of ticks from beginning of simulation (restored from checkpoints and never reset)
sim_freq                                 1000000000000                       # Frequency of simulated ticks
host_inst_rate                                  28150                       # Simulator instruction rate (inst/s)
host_op_rate                                    44218                       # Simulator op (including micro ops) rate (op/s)
host_tick_rate                               13203320                       # Simulator tick rate (ticks/s)
host_mem_usage                               67550456                       # Number of bytes of host memory used
host_seconds                                  7573.85                       # Real time elapsed on the host
sim_insts                                   213202060                       # Number of instructions simulated
sim_ops                                     334899490                       # Number of ops (including micro ops) simulated
system.voltage_domain.voltage                       1                       # Voltage in Volts
system.clk_domain.clock                          1000                       # Clock period in ticks
system.mem_ctrls0.pwrStateResidencyTicks::UNDEFINED 100000000000                       # Cumulative time (in ticks) in various power states
system.mem_ctrls0.bytes_read::.cpu.inst        287168                       # Number of bytes read from this memory
system.mem_ctrls0.bytes_read::.cpu.data        801216                       # Number of bytes read from this memory
system.mem_ctrls0.bytes_read::.l2.prefetcher     37245888                       # Number of bytes read from this memory
system.mem_ctrls0.bytes_read::total          38334272                       # Number of bytes read from this memory
system.mem_ctrls0.bytes_inst_read::.cpu.inst       287168                       # Number of instructions bytes read from this memory
system.mem_ctrls0.bytes_inst_read::total       287168                       # Number of instructions bytes read from this memory
system.mem_ctrls0.bytes_written::.writebacks     36934464                       # Number of bytes written to this memory
system.mem_ctrls0.bytes_written::total       36934464                       # Number of bytes written to this memory
system.mem_ctrls0.num_reads::.cpu.inst           4487                       # Number of read requests responded to by this memory
system.mem_ctrls0.num_reads::.cpu.data          12519                       # Number of read requests responded to by this memory
system.mem_ctrls0.num_reads::.l2.prefetcher       581967                       # Number of read requests responded to by this memory
system.mem_ctrls0.num_reads::total             598973                       # Number of read requests responded to by this memory
system.mem_ctrls0.num_writes::.writebacks       577101                       # Number of write requests responded to by this memory
system.mem_ctrls0.num_writes::total            577101                       # Number of write requests responded to by this memory
system.mem_ctrls0.bw_read::.cpu.inst          2871680                       # Total read bandwidth from this memory (bytes/s)
system.mem_ctrls0.bw_read::.cpu.data          8012160                       # Total read bandwidth from this memory (bytes/s)
system.mem_ctrls0.bw_read::.l2.prefetcher    372458880                       # Total read bandwidth from this memory (bytes/s)
system.mem_ctrls0.bw_read::total            383342720                       # Total read bandwidth from this memory (bytes/s)
system.mem_ctrls0.bw_inst_read::.cpu.inst      2871680                       # Instruction read bandwidth from this memory (bytes/s)
system.mem_ctrls0.bw_inst_read::total         2871680                       # Instruction read bandwidth from this memory (bytes/s)
system.mem_ctrls0.bw_write::.writebacks     369344640                       # Write bandwidth from this memory (bytes/s)
system.mem_ctrls0.bw_write::total           369344640                       # Write bandwidth from this memory (bytes/s)
system.mem_ctrls0.bw_total::.writebacks     369344640                       # Total bandwidth to/from this memory (bytes/s)
system.mem_ctrls0.bw_total::.cpu.inst         2871680                       # Total bandwidth to/from this memory (bytes/s)
system.mem_ctrls0.bw_total::.cpu.data         8012160                       # Total bandwidth to/from this memory (bytes/s)
system.mem_ctrls0.bw_total::.l2.prefetcher    372458880                       # Total bandwidth to/from this memory (bytes/s)
system.mem_ctrls0.bw_total::total           752687360                       # Total bandwidth to/from this memory (bytes/s)
system.mem_ctrls0.avgPriority_.writebacks::samples    577101.00                       # Average QoS priority value for accepted requests
system.mem_ctrls0.avgPriority_.cpu.inst::samples      4487.00                       # Average QoS priority value for accepted requests
system.mem_ctrls0.avgPriority_.cpu.data::samples     12519.00                       # Average QoS priority value for accepted requests
system.mem_ctrls0.avgPriority_.l2.prefetcher::samples    581968.00                       # Average QoS priority value for accepted requests
system.mem_ctrls0.priorityMinLatency     0.000000017492                       # per QoS priority minimum request to response latency (s)
system.mem_ctrls0.priorityMaxLatency     0.005393485652                       # per QoS priority maximum request to response latency (s)
system.mem_ctrls0.numReadWriteTurnArounds        34997                       # Number of turnarounds from READ to WRITE
system.mem_ctrls0.numWriteReadTurnArounds        34997                       # Number of turnarounds from WRITE to READ
system.mem_ctrls0.numStayReadState            1683907                       # Number of times bus staying in READ state
system.mem_ctrls0.numStayWriteState            542573                       # Number of times bus staying in WRITE state
system.mem_ctrls0.readReqs                     598974                       # Number of read requests accepted
system.mem_ctrls0.writeReqs                    577101                       # Number of write requests accepted
system.mem_ctrls0.readBursts                   598974                       # Number of DRAM read bursts, including those serviced by the write queue
system.mem_ctrls0.writeBursts                  577101                       # Number of DRAM write bursts, including those merged in the write queue
system.mem_ctrls0.bytesReadDRAM              38334336                       # Total number of bytes read from DRAM
system.mem_ctrls0.bytesReadWrQ                      0                       # Total number of bytes read from write queue
system.mem_ctrls0.bytesWritten               36931136                       # Total number of bytes written to DRAM
system.mem_ctrls0.bytesReadSys               38334336                       # Total read bytes from the system interface side
system.mem_ctrls0.bytesWrittenSys            36934464                       # Total written bytes from the system interface side
system.mem_ctrls0.servicedByWrQ                     0                       # Number of DRAM read bursts serviced by the write queue
system.mem_ctrls0.mergedWrBursts                    0                       # Number of DRAM write bursts merged with an existing one
system.mem_ctrls0.neitherReadNorWriteReqs            0                       # Number of requests that are neither read nor write
system.mem_ctrls0.perBankRdBursts::0            18680                       # Per bank write bursts
system.mem_ctrls0.perBankRdBursts::1            18855                       # Per bank write bursts
system.mem_ctrls0.perBankRdBursts::2            19082                       # Per bank write bursts
system.mem_ctrls0.perBankRdBursts::3            18977                       # Per bank write bursts
system.mem_ctrls0.perBankRdBursts::4            18724                       # Per bank write bursts
system.mem_ctrls0.perBankRdBursts::5            18714                       # Per bank write bursts
system.mem_ctrls0.perBankRdBursts::6            18702                       # Per bank write bursts
system.mem_ctrls0.perBankRdBursts::7            18755                       # Per bank write bursts
system.mem_ctrls0.perBankRdBursts::8            18737                       # Per bank write bursts
system.mem_ctrls0.perBankRdBursts::9            18741                       # Per bank write bursts
system.mem_ctrls0.perBankRdBursts::10           18783                       # Per bank write bursts
system.mem_ctrls0.perBankRdBursts::11           18837                       # Per bank write bursts
system.mem_ctrls0.perBankRdBursts::12           18932                       # Per bank write bursts
system.mem_ctrls0.perBankRdBursts::13           18808                       # Per bank write bursts
system.mem_ctrls0.perBankRdBursts::14           18672                       # Per bank write bursts
system.mem_ctrls0.perBankRdBursts::15           18569                       # Per bank write bursts
system.mem_ctrls0.perBankRdBursts::16           18482                       # Per bank write bursts
system.mem_ctrls0.perBankRdBursts::17           18499                       # Per bank write bursts
system.mem_ctrls0.perBankRdBursts::18           18596                       # Per bank write bursts
system.mem_ctrls0.perBankRdBursts::19           18646                       # Per bank write bursts
system.mem_ctrls0.perBankRdBursts::20           18764                       # Per bank write bursts
system.mem_ctrls0.perBankRdBursts::21           18754                       # Per bank write bursts
system.mem_ctrls0.perBankRdBursts::22           18756                       # Per bank write bursts
system.mem_ctrls0.perBankRdBursts::23           18707                       # Per bank write bursts
system.mem_ctrls0.perBankRdBursts::24           18710                       # Per bank write bursts
system.mem_ctrls0.perBankRdBursts::25           18661                       # Per bank write bursts
system.mem_ctrls0.perBankRdBursts::26           18612                       # Per bank write bursts
system.mem_ctrls0.perBankRdBursts::27           18616                       # Per bank write bursts
system.mem_ctrls0.perBankRdBursts::28           18706                       # Per bank write bursts
system.mem_ctrls0.perBankRdBursts::29           18648                       # Per bank write bursts
system.mem_ctrls0.perBankRdBursts::30           18556                       # Per bank write bursts
system.mem_ctrls0.perBankRdBursts::31           18693                       # Per bank write bursts
system.mem_ctrls0.perBankWrBursts::0            18050                       # Per bank write bursts
system.mem_ctrls0.perBankWrBursts::1            18051                       # Per bank write bursts
system.mem_ctrls0.perBankWrBursts::2            18167                       # Per bank write bursts
system.mem_ctrls0.perBankWrBursts::3            18152                       # Per bank write bursts
system.mem_ctrls0.perBankWrBursts::4            18050                       # Per bank write bursts
system.mem_ctrls0.perBankWrBursts::5            17976                       # Per bank write bursts
system.mem_ctrls0.perBankWrBursts::6            17987                       # Per bank write bursts
system.mem_ctrls0.perBankWrBursts::7            18050                       # Per bank write bursts
system.mem_ctrls0.perBankWrBursts::8            18051                       # Per bank write bursts
system.mem_ctrls0.perBankWrBursts::9            18052                       # Per bank write bursts
system.mem_ctrls0.perBankWrBursts::10           18113                       # Per bank write bursts
system.mem_ctrls0.perBankWrBursts::11           18179                       # Per bank write bursts
system.mem_ctrls0.perBankWrBursts::12           18179                       # Per bank write bursts
system.mem_ctrls0.perBankWrBursts::13           18093                       # Per bank write bursts
system.mem_ctrls0.perBankWrBursts::14           18033                       # Per bank write bursts
system.mem_ctrls0.perBankWrBursts::15           17931                       # Per bank write bursts
system.mem_ctrls0.perBankWrBursts::16           17923                       # Per bank write bursts
system.mem_ctrls0.perBankWrBursts::17           17922                       # Per bank write bursts
system.mem_ctrls0.perBankWrBursts::18           17922                       # Per bank write bursts
system.mem_ctrls0.perBankWrBursts::19           17924                       # Per bank write bursts
system.mem_ctrls0.perBankWrBursts::20           18050                       # Per bank write bursts
system.mem_ctrls0.perBankWrBursts::21           18082                       # Per bank write bursts
system.mem_ctrls0.perBankWrBursts::22           18146                       # Per bank write bursts
system.mem_ctrls0.perBankWrBursts::23           18065                       # Per bank write bursts
system.mem_ctrls0.perBankWrBursts::24           18050                       # Per bank write bursts
system.mem_ctrls0.perBankWrBursts::25           17959                       # Per bank write bursts
system.mem_ctrls0.perBankWrBursts::26           17948                       # Per bank write bursts
system.mem_ctrls0.perBankWrBursts::27           17977                       # Per bank write bursts
system.mem_ctrls0.perBankWrBursts::28           18019                       # Per bank write bursts
system.mem_ctrls0.perBankWrBursts::29           18007                       # Per bank write bursts
system.mem_ctrls0.perBankWrBursts::30           17923                       # Per bank write bursts
system.mem_ctrls0.perBankWrBursts::31           18018                       # Per bank write bursts
system.mem_ctrls0.numRdRetry                        0                       # Number of times read queue was full causing retry
system.mem_ctrls0.numWrRetry                        0                       # Number of times write queue was full causing retry
system.mem_ctrls0.totGap                  99999955507                       # Total gap between requests
system.mem_ctrls0.readPktSize::0                    0                       # Read request sizes (log2)
system.mem_ctrls0.readPktSize::1                    0                       # Read request sizes (log2)
system.mem_ctrls0.readPktSize::2                    0                       # Read request sizes (log2)
system.mem_ctrls0.readPktSize::3                    0                       # Read request sizes (log2)
system.mem_ctrls0.readPktSize::4                    0                       # Read request sizes (log2)
system.mem_ctrls0.readPktSize::5                    0                       # Read request sizes (log2)
system.mem_ctrls0.readPktSize::6               598974                       # Read request sizes (log2)
system.mem_ctrls0.writePktSize::0                   0                       # Write request sizes (log2)
system.mem_ctrls0.writePktSize::1                   0                       # Write request sizes (log2)
system.mem_ctrls0.writePktSize::2                   0                       # Write request sizes (log2)
system.mem_ctrls0.writePktSize::3                   0                       # Write request sizes (log2)
system.mem_ctrls0.writePktSize::4                   0                       # Write request sizes (log2)
system.mem_ctrls0.writePktSize::5                   0                       # Write request sizes (log2)
system.mem_ctrls0.writePktSize::6              577101                       # Write request sizes (log2)
system.mem_ctrls0.rdQLenPdf::0                 458099                       # What read queue length does an incoming req see
system.mem_ctrls0.rdQLenPdf::1                  69588                       # What read queue length does an incoming req see
system.mem_ctrls0.rdQLenPdf::2                  35391                       # What read queue length does an incoming req see
system.mem_ctrls0.rdQLenPdf::3                  23448                       # What read queue length does an incoming req see
system.mem_ctrls0.rdQLenPdf::4                  10207                       # What read queue length does an incoming req see
system.mem_ctrls0.rdQLenPdf::5                    887                       # What read queue length does an incoming req see
system.mem_ctrls0.rdQLenPdf::6                    623                       # What read queue length does an incoming req see
system.mem_ctrls0.rdQLenPdf::7                    509                       # What read queue length does an incoming req see
system.mem_ctrls0.rdQLenPdf::8                    219                       # What read queue length does an incoming req see
system.mem_ctrls0.rdQLenPdf::9                      1                       # What read queue length does an incoming req see
system.mem_ctrls0.rdQLenPdf::10                     1                       # What read queue length does an incoming req see
system.mem_ctrls0.rdQLenPdf::11                     1                       # What read queue length does an incoming req see
system.mem_ctrls0.rdQLenPdf::12                     0                       # What read queue length does an incoming req see
system.mem_ctrls0.rdQLenPdf::13                     0                       # What read queue length does an incoming req see
system.mem_ctrls0.rdQLenPdf::14                     0                       # What read queue length does an incoming req see
system.mem_ctrls0.rdQLenPdf::15                     0                       # What read queue length does an incoming req see
system.mem_ctrls0.rdQLenPdf::16                     0                       # What read queue length does an incoming req see
system.mem_ctrls0.rdQLenPdf::17                     0                       # What read queue length does an incoming req see
system.mem_ctrls0.rdQLenPdf::18                     0                       # What read queue length does an incoming req see
system.mem_ctrls0.rdQLenPdf::19                     0                       # What read queue length does an incoming req see
system.mem_ctrls0.rdQLenPdf::20                     0                       # What read queue length does an incoming req see
system.mem_ctrls0.rdQLenPdf::21                     0                       # What read queue length does an incoming req see
system.mem_ctrls0.rdQLenPdf::22                     0                       # What read queue length does an incoming req see
system.mem_ctrls0.rdQLenPdf::23                     0                       # What read queue length does an incoming req see
system.mem_ctrls0.rdQLenPdf::24                     0                       # What read queue length does an incoming req see
system.mem_ctrls0.rdQLenPdf::25                     0                       # What read queue length does an incoming req see
system.mem_ctrls0.rdQLenPdf::26                     0                       # What read queue length does an incoming req see
system.mem_ctrls0.rdQLenPdf::27                     0                       # What read queue length does an incoming req see
system.mem_ctrls0.rdQLenPdf::28                     0                       # What read queue length does an incoming req see
system.mem_ctrls0.rdQLenPdf::29                     0                       # What read queue length does an incoming req see
system.mem_ctrls0.rdQLenPdf::30                     0                       # What read queue length does an incoming req see
system.mem_ctrls0.rdQLenPdf::31                     0                       # What read queue length does an incoming req see
system.mem_ctrls0.rdQLenPdf::32                     0                       # What read queue length does an incoming req see
system.mem_ctrls0.rdQLenPdf::33                     0                       # What read queue length does an incoming req see
system.mem_ctrls0.rdQLenPdf::34                     0                       # What read queue length does an incoming req see
system.mem_ctrls0.rdQLenPdf::35                     0                       # What read queue length does an incoming req see
system.mem_ctrls0.rdQLenPdf::36                     0                       # What read queue length does an incoming req see
system.mem_ctrls0.rdQLenPdf::37                     0                       # What read queue length does an incoming req see
system.mem_ctrls0.rdQLenPdf::38                     0                       # What read queue length does an incoming req see
system.mem_ctrls0.rdQLenPdf::39                     0                       # What read queue length does an incoming req see
system.mem_ctrls0.rdQLenPdf::40                     0                       # What read queue length does an incoming req see
system.mem_ctrls0.rdQLenPdf::41                     0                       # What read queue length does an incoming req see
system.mem_ctrls0.rdQLenPdf::42                     0                       # What read queue length does an incoming req see
system.mem_ctrls0.rdQLenPdf::43                     0                       # What read queue length does an incoming req see
system.mem_ctrls0.rdQLenPdf::44                     0                       # What read queue length does an incoming req see
system.mem_ctrls0.rdQLenPdf::45                     0                       # What read queue length does an incoming req see
system.mem_ctrls0.rdQLenPdf::46                     0                       # What read queue length does an incoming req see
system.mem_ctrls0.rdQLenPdf::47                     0                       # What read queue length does an incoming req see
system.mem_ctrls0.rdQLenPdf::48                     0                       # What read queue length does an incoming req see
system.mem_ctrls0.rdQLenPdf::49                     0                       # What read queue length does an incoming req see
system.mem_ctrls0.rdQLenPdf::50                     0                       # What read queue length does an incoming req see
system.mem_ctrls0.rdQLenPdf::51                     0                       # What read queue length does an incoming req see
system.mem_ctrls0.rdQLenPdf::52                     0                       # What read queue length does an incoming req see
system.mem_ctrls0.rdQLenPdf::53                     0                       # What read queue length does an incoming req see
system.mem_ctrls0.rdQLenPdf::54                     0                       # What read queue length does an incoming req see
system.mem_ctrls0.rdQLenPdf::55                     0                       # What read queue length does an incoming req see
system.mem_ctrls0.rdQLenPdf::56                     0                       # What read queue length does an incoming req see
system.mem_ctrls0.rdQLenPdf::57                     0                       # What read queue length does an incoming req see
system.mem_ctrls0.rdQLenPdf::58                     0                       # What read queue length does an incoming req see
system.mem_ctrls0.rdQLenPdf::59                     0                       # What read queue length does an incoming req see
system.mem_ctrls0.rdQLenPdf::60                     0                       # What read queue length does an incoming req see
system.mem_ctrls0.rdQLenPdf::61                     0                       # What read queue length does an incoming req see
system.mem_ctrls0.rdQLenPdf::62                     0                       # What read queue length does an incoming req see
system.mem_ctrls0.rdQLenPdf::63                     0                       # What read queue length does an incoming req see
system.mem_ctrls0.wrQLenPdf::0                      1                       # What write queue length does an incoming req see
system.mem_ctrls0.wrQLenPdf::1                      1                       # What write queue length does an incoming req see
system.mem_ctrls0.wrQLenPdf::2                      1                       # What write queue length does an incoming req see
system.mem_ctrls0.wrQLenPdf::3                      1                       # What write queue length does an incoming req see
system.mem_ctrls0.wrQLenPdf::4                      1                       # What write queue length does an incoming req see
system.mem_ctrls0.wrQLenPdf::5                      1                       # What write queue length does an incoming req see
system.mem_ctrls0.wrQLenPdf::6                      1                       # What write queue length does an incoming req see
system.mem_ctrls0.wrQLenPdf::7                      1                       # What write queue length does an incoming req see
system.mem_ctrls0.wrQLenPdf::8                      1                       # What write queue length does an incoming req see
system.mem_ctrls0.wrQLenPdf::9                      1                       # What write queue length does an incoming req see
system.mem_ctrls0.wrQLenPdf::10                     1                       # What write queue length does an incoming req see
system.mem_ctrls0.wrQLenPdf::11                     1                       # What write queue length does an incoming req see
system.mem_ctrls0.wrQLenPdf::12                     1                       # What write queue length does an incoming req see
system.mem_ctrls0.wrQLenPdf::13                     1                       # What write queue length does an incoming req see
system.mem_ctrls0.wrQLenPdf::14                     1                       # What write queue length does an incoming req see
system.mem_ctrls0.wrQLenPdf::15                     1                       # What write queue length does an incoming req see
system.mem_ctrls0.wrQLenPdf::16                     1                       # What write queue length does an incoming req see
system.mem_ctrls0.wrQLenPdf::17                     1                       # What write queue length does an incoming req see
system.mem_ctrls0.wrQLenPdf::18                     1                       # What write queue length does an incoming req see
system.mem_ctrls0.wrQLenPdf::19                     1                       # What write queue length does an incoming req see
system.mem_ctrls0.wrQLenPdf::20                     1                       # What write queue length does an incoming req see
system.mem_ctrls0.wrQLenPdf::21                     1                       # What write queue length does an incoming req see
system.mem_ctrls0.wrQLenPdf::22                     1                       # What write queue length does an incoming req see
system.mem_ctrls0.wrQLenPdf::23                     1                       # What write queue length does an incoming req see
system.mem_ctrls0.wrQLenPdf::24                     1                       # What write queue length does an incoming req see
system.mem_ctrls0.wrQLenPdf::25                     1                       # What write queue length does an incoming req see
system.mem_ctrls0.wrQLenPdf::26                     1                       # What write queue length does an incoming req see
system.mem_ctrls0.wrQLenPdf::27                     1                       # What write queue length does an incoming req see
system.mem_ctrls0.wrQLenPdf::28                     1                       # What write queue length does an incoming req see
system.mem_ctrls0.wrQLenPdf::29                     1                       # What write queue length does an incoming req see
system.mem_ctrls0.wrQLenPdf::30                     1                       # What write queue length does an incoming req see
system.mem_ctrls0.wrQLenPdf::31                     1                       # What write queue length does an incoming req see
system.mem_ctrls0.wrQLenPdf::32                     1                       # What write queue length does an incoming req see
system.mem_ctrls0.wrQLenPdf::33                     1                       # What write queue length does an incoming req see
system.mem_ctrls0.wrQLenPdf::34                     1                       # What write queue length does an incoming req see
system.mem_ctrls0.wrQLenPdf::35                     1                       # What write queue length does an incoming req see
system.mem_ctrls0.wrQLenPdf::36                     1                       # What write queue length does an incoming req see
system.mem_ctrls0.wrQLenPdf::37                     1                       # What write queue length does an incoming req see
system.mem_ctrls0.wrQLenPdf::38                     1                       # What write queue length does an incoming req see
system.mem_ctrls0.wrQLenPdf::39                     1                       # What write queue length does an incoming req see
system.mem_ctrls0.wrQLenPdf::40                     1                       # What write queue length does an incoming req see
system.mem_ctrls0.wrQLenPdf::41                     1                       # What write queue length does an incoming req see
system.mem_ctrls0.wrQLenPdf::42                     1                       # What write queue length does an incoming req see
system.mem_ctrls0.wrQLenPdf::43                     1                       # What write queue length does an incoming req see
system.mem_ctrls0.wrQLenPdf::44                     1                       # What write queue length does an incoming req see
system.mem_ctrls0.wrQLenPdf::45                     1                       # What write queue length does an incoming req see
system.mem_ctrls0.wrQLenPdf::46                     1                       # What write queue length does an incoming req see
system.mem_ctrls0.wrQLenPdf::47                  5614                       # What write queue length does an incoming req see
system.mem_ctrls0.wrQLenPdf::48                  6317                       # What write queue length does an incoming req see
system.mem_ctrls0.wrQLenPdf::49                 27583                       # What write queue length does an incoming req see
system.mem_ctrls0.wrQLenPdf::50                 33404                       # What write queue length does an incoming req see
system.mem_ctrls0.wrQLenPdf::51                 34751                       # What write queue length does an incoming req see
system.mem_ctrls0.wrQLenPdf::52                 35689                       # What write queue length does an incoming req see
system.mem_ctrls0.wrQLenPdf::53                 35709                       # What write queue length does an incoming req see
system.mem_ctrls0.wrQLenPdf::54                 36032                       # What write queue length does an incoming req see
system.mem_ctrls0.wrQLenPdf::55                 35569                       # What write queue length does an incoming req see
system.mem_ctrls0.wrQLenPdf::56                 35672                       # What write queue length does an incoming req see
system.mem_ctrls0.wrQLenPdf::57                 35887                       # What write queue length does an incoming req see
system.mem_ctrls0.wrQLenPdf::58                 36344                       # What write queue length does an incoming req see
system.mem_ctrls0.wrQLenPdf::59                 36218                       # What write queue length does an incoming req see
system.mem_ctrls0.wrQLenPdf::60                 36292                       # What write queue length does an incoming req see
system.mem_ctrls0.wrQLenPdf::61                 36368                       # What write queue length does an incoming req see
system.mem_ctrls0.wrQLenPdf::62                 36017                       # What write queue length does an incoming req see
system.mem_ctrls0.wrQLenPdf::63                 36394                       # What write queue length does an incoming req see
system.mem_ctrls0.wrQLenPdf::64                 36036                       # What write queue length does an incoming req see
system.mem_ctrls0.wrQLenPdf::65                   741                       # What write queue length does an incoming req see
system.mem_ctrls0.wrQLenPdf::66                   273                       # What write queue length does an incoming req see
system.mem_ctrls0.wrQLenPdf::67                    88                       # What write queue length does an incoming req see
system.mem_ctrls0.wrQLenPdf::68                    26                       # What write queue length does an incoming req see
system.mem_ctrls0.wrQLenPdf::69                    15                       # What write queue length does an incoming req see
system.mem_ctrls0.wrQLenPdf::70                     7                       # What write queue length does an incoming req see
system.mem_ctrls0.wrQLenPdf::71                     5                       # What write queue length does an incoming req see
system.mem_ctrls0.wrQLenPdf::72                     2                       # What write queue length does an incoming req see
system.mem_ctrls0.wrQLenPdf::73                     1                       # What write queue length does an incoming req see
system.mem_ctrls0.wrQLenPdf::74                     0                       # What write queue length does an incoming req see
system.mem_ctrls0.wrQLenPdf::75                     0                       # What write queue length does an incoming req see
system.mem_ctrls0.wrQLenPdf::76                     0                       # What write queue length does an incoming req see
system.mem_ctrls0.wrQLenPdf::77                     0                       # What write queue length does an incoming req see
system.mem_ctrls0.wrQLenPdf::78                     0                       # What write queue length does an incoming req see
system.mem_ctrls0.wrQLenPdf::79                     0                       # What write queue length does an incoming req see
system.mem_ctrls0.wrQLenPdf::80                     0                       # What write queue length does an incoming req see
system.mem_ctrls0.wrQLenPdf::81                     0                       # What write queue length does an incoming req see
system.mem_ctrls0.wrQLenPdf::82                     0                       # What write queue length does an incoming req see
system.mem_ctrls0.wrQLenPdf::83                     0                       # What write queue length does an incoming req see
system.mem_ctrls0.wrQLenPdf::84                     0                       # What write queue length does an incoming req see
system.mem_ctrls0.wrQLenPdf::85                     0                       # What write queue length does an incoming req see
system.mem_ctrls0.wrQLenPdf::86                     0                       # What write queue length does an incoming req see
system.mem_ctrls0.wrQLenPdf::87                     0                       # What write queue length does an incoming req see
system.mem_ctrls0.wrQLenPdf::88                     0                       # What write queue length does an incoming req see
system.mem_ctrls0.wrQLenPdf::89                     0                       # What write queue length does an incoming req see
system.mem_ctrls0.wrQLenPdf::90                     0                       # What write queue length does an incoming req see
system.mem_ctrls0.wrQLenPdf::91                     0                       # What write queue length does an incoming req see
system.mem_ctrls0.wrQLenPdf::92                     0                       # What write queue length does an incoming req see
system.mem_ctrls0.wrQLenPdf::93                     0                       # What write queue length does an incoming req see
system.mem_ctrls0.wrQLenPdf::94                     0                       # What write queue length does an incoming req see
system.mem_ctrls0.wrQLenPdf::95                     0                       # What write queue length does an incoming req see
system.mem_ctrls0.wrQLenPdf::96                     0                       # What write queue length does an incoming req see
system.mem_ctrls0.wrQLenPdf::97                     0                       # What write queue length does an incoming req see
system.mem_ctrls0.wrQLenPdf::98                     0                       # What write queue length does an incoming req see
system.mem_ctrls0.wrQLenPdf::99                     0                       # What write queue length does an incoming req see
system.mem_ctrls0.wrQLenPdf::100                    0                       # What write queue length does an incoming req see
system.mem_ctrls0.wrQLenPdf::101                    0                       # What write queue length does an incoming req see
system.mem_ctrls0.wrQLenPdf::102                    0                       # What write queue length does an incoming req see
system.mem_ctrls0.wrQLenPdf::103                    0                       # What write queue length does an incoming req see
system.mem_ctrls0.wrQLenPdf::104                    0                       # What write queue length does an incoming req see
system.mem_ctrls0.wrQLenPdf::105                    0                       # What write queue length does an incoming req see
system.mem_ctrls0.wrQLenPdf::106                    0                       # What write queue length does an incoming req see
system.mem_ctrls0.wrQLenPdf::107                    0                       # What write queue length does an incoming req see
system.mem_ctrls0.wrQLenPdf::108                    0                       # What write queue length does an incoming req see
system.mem_ctrls0.wrQLenPdf::109                    0                       # What write queue length does an incoming req see
system.mem_ctrls0.wrQLenPdf::110                    0                       # What write queue length does an incoming req see
system.mem_ctrls0.wrQLenPdf::111                    0                       # What write queue length does an incoming req see
system.mem_ctrls0.wrQLenPdf::112                    0                       # What write queue length does an incoming req see
system.mem_ctrls0.wrQLenPdf::113                    0                       # What write queue length does an incoming req see
system.mem_ctrls0.wrQLenPdf::114                    0                       # What write queue length does an incoming req see
system.mem_ctrls0.wrQLenPdf::115                    0                       # What write queue length does an incoming req see
system.mem_ctrls0.wrQLenPdf::116                    0                       # What write queue length does an incoming req see
system.mem_ctrls0.wrQLenPdf::117                    0                       # What write queue length does an incoming req see
system.mem_ctrls0.wrQLenPdf::118                    0                       # What write queue length does an incoming req see
system.mem_ctrls0.wrQLenPdf::119                    0                       # What write queue length does an incoming req see
system.mem_ctrls0.wrQLenPdf::120                    0                       # What write queue length does an incoming req see
system.mem_ctrls0.wrQLenPdf::121                    0                       # What write queue length does an incoming req see
system.mem_ctrls0.wrQLenPdf::122                    0                       # What write queue length does an incoming req see
system.mem_ctrls0.wrQLenPdf::123                    0                       # What write queue length does an incoming req see
system.mem_ctrls0.wrQLenPdf::124                    0                       # What write queue length does an incoming req see
system.mem_ctrls0.wrQLenPdf::125                    0                       # What write queue length does an incoming req see
system.mem_ctrls0.wrQLenPdf::126                    0                       # What write queue length does an incoming req see
system.mem_ctrls0.wrQLenPdf::127                    0                       # What write queue length does an incoming req see
system.mem_ctrls0.bytesPerActivate::samples       242883                       # Bytes accessed per row activation
system.mem_ctrls0.bytesPerActivate::mean   309.880494                       # Bytes accessed per row activation
system.mem_ctrls0.bytesPerActivate::gmean   251.374104                       # Bytes accessed per row activation
system.mem_ctrls0.bytesPerActivate::stdev   193.565396                       # Bytes accessed per row activation
system.mem_ctrls0.bytesPerActivate::0-127        30828     12.69%     12.69% # Bytes accessed per row activation
system.mem_ctrls0.bytesPerActivate::128-255        39503     16.26%     28.96% # Bytes accessed per row activation
system.mem_ctrls0.bytesPerActivate::256-383        92843     38.23%     67.18% # Bytes accessed per row activation
system.mem_ctrls0.bytesPerActivate::384-511        37169     15.30%     82.49% # Bytes accessed per row activation
system.mem_ctrls0.bytesPerActivate::512-639        28634     11.79%     94.27% # Bytes accessed per row activation
system.mem_ctrls0.bytesPerActivate::640-767         4527      1.86%     96.14% # Bytes accessed per row activation
system.mem_ctrls0.bytesPerActivate::768-895         2886      1.19%     97.33% # Bytes accessed per row activation
system.mem_ctrls0.bytesPerActivate::896-1023         1719      0.71%     98.03% # Bytes accessed per row activation
system.mem_ctrls0.bytesPerActivate::1024-1151         4774      1.97%    100.00% # Bytes accessed per row activation
system.mem_ctrls0.bytesPerActivate::total       242883                       # Bytes accessed per row activation
system.mem_ctrls0.rdPerTurnAround::samples        34997                       # Reads before turning the bus around for writes
system.mem_ctrls0.rdPerTurnAround::mean     17.114867                       # Reads before turning the bus around for writes
system.mem_ctrls0.rdPerTurnAround::gmean    16.531125                       # Reads before turning the bus around for writes
system.mem_ctrls0.rdPerTurnAround::stdev    68.329500                       # Reads before turning the bus around for writes
system.mem_ctrls0.rdPerTurnAround::0-255        34993     99.99%     99.99% # Reads before turning the bus around for writes
system.mem_ctrls0.rdPerTurnAround::256-511            3      0.01%    100.00% # Reads before turning the bus around for writes
system.mem_ctrls0.rdPerTurnAround::12544-12799            1      0.00%    100.00% # Reads before turning the bus around for writes
system.mem_ctrls0.rdPerTurnAround::total        34997                       # Reads before turning the bus around for writes
system.mem_ctrls0.wrPerTurnAround::samples        34997                       # Writes before turning the bus around for reads
system.mem_ctrls0.wrPerTurnAround::mean     16.488528                       # Writes before turning the bus around for reads
system.mem_ctrls0.wrPerTurnAround::gmean    16.452688                       # Writes before turning the bus around for reads
system.mem_ctrls0.wrPerTurnAround::stdev     1.146197                       # Writes before turning the bus around for reads
system.mem_ctrls0.wrPerTurnAround::16           28641     81.84%     81.84% # Writes before turning the bus around for reads
system.mem_ctrls0.wrPerTurnAround::17             461      1.32%     83.16% # Writes before turning the bus around for reads
system.mem_ctrls0.wrPerTurnAround::18            2790      7.97%     91.13% # Writes before turning the bus around for reads
system.mem_ctrls0.wrPerTurnAround::19            2137      6.11%     97.23% # Writes before turning the bus around for reads
system.mem_ctrls0.wrPerTurnAround::20             519      1.48%     98.72% # Writes before turning the bus around for reads
system.mem_ctrls0.wrPerTurnAround::21             228      0.65%     99.37% # Writes before turning the bus around for reads
system.mem_ctrls0.wrPerTurnAround::22             166      0.47%     99.84% # Writes before turning the bus around for reads
system.mem_ctrls0.wrPerTurnAround::23              25      0.07%     99.91% # Writes before turning the bus around for reads
system.mem_ctrls0.wrPerTurnAround::24              21      0.06%     99.97% # Writes before turning the bus around for reads
system.mem_ctrls0.wrPerTurnAround::25               6      0.02%     99.99% # Writes before turning the bus around for reads
system.mem_ctrls0.wrPerTurnAround::26               1      0.00%     99.99% # Writes before turning the bus around for reads
system.mem_ctrls0.wrPerTurnAround::28               1      0.00%    100.00% # Writes before turning the bus around for reads
system.mem_ctrls0.wrPerTurnAround::30               1      0.00%    100.00% # Writes before turning the bus around for reads
system.mem_ctrls0.wrPerTurnAround::total        34997                       # Writes before turning the bus around for reads
system.mem_ctrls0.masterReadBytes::.cpu.inst       287168                       # Per-master bytes read from memory
system.mem_ctrls0.masterReadBytes::.cpu.data       801216                       # Per-master bytes read from memory
system.mem_ctrls0.masterReadBytes::.l2.prefetcher     37245952                       # Per-master bytes read from memory
system.mem_ctrls0.masterWriteBytes::.writebacks     36931136                       # Per-master bytes write to memory
system.mem_ctrls0.masterReadRate::.cpu.inst 2871680.000000000000                       # Per-master bytes read from memory rate (Bytes/sec)
system.mem_ctrls0.masterReadRate::.cpu.data 8012160.000000000000                       # Per-master bytes read from memory rate (Bytes/sec)
system.mem_ctrls0.masterReadRate::.l2.prefetcher 372459520.000000000000                       # Per-master bytes read from memory rate (Bytes/sec)
system.mem_ctrls0.masterWriteRate::.writebacks 369311360.000000000000                       # Per-master bytes write to memory rate (Bytes/sec)
system.mem_ctrls0.masterReadAccesses::.cpu.inst         4487                       # Per-master read serviced memory accesses
system.mem_ctrls0.masterReadAccesses::.cpu.data        12519                       # Per-master read serviced memory accesses
system.mem_ctrls0.masterReadAccesses::.l2.prefetcher       581968                       # Per-master read serviced memory accesses
system.mem_ctrls0.masterWriteAccesses::.writebacks       577101                       # Per-master write serviced memory accesses
system.mem_ctrls0.masterReadTotalLat::.cpu.inst    451874052                       # Per-master read total memory access latency
system.mem_ctrls0.masterReadTotalLat::.cpu.data    969947949                       # Per-master read total memory access latency
system.mem_ctrls0.masterReadTotalLat::.l2.prefetcher  27180920366                       # Per-master read total memory access latency
system.mem_ctrls0.masterWriteTotalLat::.writebacks 2899637537726                       # Per-master write total memory access latency
system.mem_ctrls0.masterReadAvgLat::.cpu.inst    100707.39                       # Per-master read average memory access latency
system.mem_ctrls0.masterReadAvgLat::.cpu.data     77478.07                       # Per-master read average memory access latency
system.mem_ctrls0.masterReadAvgLat::.l2.prefetcher     46705.18                       # Per-master read average memory access latency
system.mem_ctrls0.masterWriteAvgLat::.writebacks   5024488.85                       # Per-master write average memory access latency
system.mem_ctrls0.totQLat                 18125489159                       # Total ticks spent queuing
system.mem_ctrls0.totMemAccLat            28602742367                       # Total ticks spent from burst creation until serviced by the DRAM
system.mem_ctrls0.totBusLat                1995781368                       # Total ticks spent in databus transfers
system.mem_ctrls0.avgQLat                    30260.89                       # Average queueing delay per DRAM burst
system.mem_ctrls0.avgBusLat                   3332.00                       # Average bus latency per DRAM burst
system.mem_ctrls0.avgMemAccLat               47752.89                       # Average memory access latency per DRAM burst
system.mem_ctrls0.avgRdBW                      383.34                       # Average DRAM read bandwidth in MiByte/s
system.mem_ctrls0.avgWrBW                      369.31                       # Average achieved write bandwidth in MiByte/s
system.mem_ctrls0.avgRdBWSys                   383.34                       # Average system read bandwidth in MiByte/s
system.mem_ctrls0.avgWrBWSys                   369.34                       # Average system write bandwidth in MiByte/s
system.mem_ctrls0.peakBW                     19207.00                       # Theoretical peak bandwidth in MiByte/s
system.mem_ctrls0.busUtil                        3.92                       # Data bus utilization in percentage
system.mem_ctrls0.busUtilRead                    2.00                       # Data bus utilization in percentage for reads
system.mem_ctrls0.busUtilWrite                   1.92                       # Data bus utilization in percentage for writes
system.mem_ctrls0.avgRdQLen                      1.33                       # Average read queue length when enqueuing
system.mem_ctrls0.avgWrQLen                     29.38                       # Average write queue length when enqueuing
system.mem_ctrls0.readRowHits                  470345                       # Number of row buffer hits during reads
system.mem_ctrls0.writeRowHits                 462790                       # Number of row buffer hits during writes
system.mem_ctrls0.readRowHitRate                78.53                       # Row buffer hit rate for reads
system.mem_ctrls0.writeRowHitRate               80.19                       # Row buffer hit rate for writes
system.mem_ctrls0.avgGap                     85028.55                       # Average gap between requests
system.mem_ctrls0.pageHitRate                   79.34                       # Row buffer hit rate, read and write combined
system.mem_ctrls0_0.actEnergy            382436964.000005                       # Energy for activate commands per rank (pJ)
system.mem_ctrls0_0.preEnergy            508432601.577601                       # Energy for precharge commands per rank (pJ)
system.mem_ctrls0_0.readEnergy           1264280021.625596                       # Energy for read commands per rank (pJ)
system.mem_ctrls0_0.writeEnergy          1086633812.543996                       # Energy for write commands per rank (pJ)
system.mem_ctrls0_0.refreshEnergy        12108200461.726408                       # Energy for refresh commands per rank (pJ)
system.mem_ctrls0_0.actBackEnergy        13268752275.240042                       # Energy for active background per rank (pJ)
system.mem_ctrls0_0.preBackEnergy        454391098.828801                       # Energy for precharge background per rank (pJ)
system.mem_ctrls0_0.actPowerDownEnergy   27182166750.412785                       # Energy for active power-down per rank (pJ)
system.mem_ctrls0_0.prePowerDownEnergy   3711788690.400564                       # Energy for precharge power-down per rank (pJ)
system.mem_ctrls0_0.selfRefreshEnergy    19088327393.687992                       # Energy for self refresh per rank (pJ)
system.mem_ctrls0_0.totalEnergy          79056922304.908813                       # Total energy per rank (pJ)
system.mem_ctrls0_0.averagePower           790.569223                       # Core power per rank (mW)
system.mem_ctrls0_0.totalIdleTime         83684502774                       # Total Idle time Per DRAM Rank
system.mem_ctrls0_0.memoryStateTime::IDLE    281385316                       # Time in different power states
system.mem_ctrls0_0.memoryStateTime::REF   3059000000                       # Time in different power states
system.mem_ctrls0_0.memoryStateTime::SREF  31709775720                       # Time in different power states
system.mem_ctrls0_0.memoryStateTime::PRE_PDN   7732899074                       # Time in different power states
system.mem_ctrls0_0.memoryStateTime::ACT  12975111910                       # Time in different power states
system.mem_ctrls0_0.memoryStateTime::ACT_PDN  44241827980                       # Time in different power states
system.mem_ctrls0_1.actEnergy            375070471.776004                       # Energy for activate commands per rank (pJ)
system.mem_ctrls0_1.preEnergy            498643090.948800                       # Energy for precharge commands per rank (pJ)
system.mem_ctrls0_1.readEnergy           1255190171.020800                       # Energy for read commands per rank (pJ)
system.mem_ctrls0_1.writeEnergy          1082202545.759999                       # Energy for write commands per rank (pJ)
system.mem_ctrls0_1.refreshEnergy        10538567610.109745                       # Energy for refresh commands per rank (pJ)
system.mem_ctrls0_1.actBackEnergy        13094922167.107189                       # Energy for active background per rank (pJ)
system.mem_ctrls0_1.preBackEnergy        364922580.556801                       # Energy for precharge background per rank (pJ)
system.mem_ctrls0_1.actPowerDownEnergy   24105694663.679882                       # Energy for active power-down per rank (pJ)
system.mem_ctrls0_1.prePowerDownEnergy   1995636625.919677                       # Energy for precharge power-down per rank (pJ)
system.mem_ctrls0_1.selfRefreshEnergy    23870128191.974403                       # Energy for self refresh per rank (pJ)
system.mem_ctrls0_1.totalEnergy          77182056943.152115                       # Total energy per rank (pJ)
system.mem_ctrls0_1.averagePower           771.820569                       # Core power per rank (mW)
system.mem_ctrls0_1.totalIdleTime         84026734693                       # Total Idle time Per DRAM Rank
system.mem_ctrls0_1.memoryStateTime::IDLE    171025627                       # Time in different power states
system.mem_ctrls0_1.memoryStateTime::REF   2662450000                       # Time in different power states
system.mem_ctrls0_1.memoryStateTime::SREF  40634555480                       # Time in different power states
system.mem_ctrls0_1.memoryStateTime::PRE_PDN   4157569149                       # Time in different power states
system.mem_ctrls0_1.memoryStateTime::ACT  13139789680                       # Time in different power states
system.mem_ctrls0_1.memoryStateTime::ACT_PDN  39234610064                       # Time in different power states
system.mem_ctrls1.pwrStateResidencyTicks::UNDEFINED 100000000000                       # Cumulative time (in ticks) in various power states
system.mem_ctrls1.bytes_read::.cpu.inst        309440                       # Number of bytes read from this memory
system.mem_ctrls1.bytes_read::.cpu.data        801664                       # Number of bytes read from this memory
system.mem_ctrls1.bytes_read::.l2.prefetcher     37248384                       # Number of bytes read from this memory
system.mem_ctrls1.bytes_read::total          38359488                       # Number of bytes read from this memory
system.mem_ctrls1.bytes_inst_read::.cpu.inst       309440                       # Number of instructions bytes read from this memory
system.mem_ctrls1.bytes_inst_read::total       309440                       # Number of instructions bytes read from this memory
system.mem_ctrls1.bytes_written::.writebacks     36934848                       # Number of bytes written to this memory
system.mem_ctrls1.bytes_written::total       36934848                       # Number of bytes written to this memory
system.mem_ctrls1.num_reads::.cpu.inst           4835                       # Number of read requests responded to by this memory
system.mem_ctrls1.num_reads::.cpu.data          12526                       # Number of read requests responded to by this memory
system.mem_ctrls1.num_reads::.l2.prefetcher       582006                       # Number of read requests responded to by this memory
system.mem_ctrls1.num_reads::total             599367                       # Number of read requests responded to by this memory
system.mem_ctrls1.num_writes::.writebacks       577107                       # Number of write requests responded to by this memory
system.mem_ctrls1.num_writes::total            577107                       # Number of write requests responded to by this memory
system.mem_ctrls1.bw_read::.cpu.inst          3094400                       # Total read bandwidth from this memory (bytes/s)
system.mem_ctrls1.bw_read::.cpu.data          8016640                       # Total read bandwidth from this memory (bytes/s)
system.mem_ctrls1.bw_read::.l2.prefetcher    372483840                       # Total read bandwidth from this memory (bytes/s)
system.mem_ctrls1.bw_read::total            383594880                       # Total read bandwidth from this memory (bytes/s)
system.mem_ctrls1.bw_inst_read::.cpu.inst      3094400                       # Instruction read bandwidth from this memory (bytes/s)
system.mem_ctrls1.bw_inst_read::total         3094400                       # Instruction read bandwidth from this memory (bytes/s)
system.mem_ctrls1.bw_write::.writebacks     369348480                       # Write bandwidth from this memory (bytes/s)
system.mem_ctrls1.bw_write::total           369348480                       # Write bandwidth from this memory (bytes/s)
system.mem_ctrls1.bw_total::.writebacks     369348480                       # Total bandwidth to/from this memory (bytes/s)
system.mem_ctrls1.bw_total::.cpu.inst         3094400                       # Total bandwidth to/from this memory (bytes/s)
system.mem_ctrls1.bw_total::.cpu.data         8016640                       # Total bandwidth to/from this memory (bytes/s)
system.mem_ctrls1.bw_total::.l2.prefetcher    372483840                       # Total bandwidth to/from this memory (bytes/s)
system.mem_ctrls1.bw_total::total           752943360                       # Total bandwidth to/from this memory (bytes/s)
system.mem_ctrls1.avgPriority_.writebacks::samples    577107.00                       # Average QoS priority value for accepted requests
system.mem_ctrls1.avgPriority_.cpu.inst::samples      4835.00                       # Average QoS priority value for accepted requests
system.mem_ctrls1.avgPriority_.cpu.data::samples     12526.00                       # Average QoS priority value for accepted requests
system.mem_ctrls1.avgPriority_.l2.prefetcher::samples    582006.00                       # Average QoS priority value for accepted requests
system.mem_ctrls1.priorityMinLatency     0.000000017492                       # per QoS priority minimum request to response latency (s)
system.mem_ctrls1.priorityMaxLatency     0.004957798132                       # per QoS priority maximum request to response latency (s)
system.mem_ctrls1.numReadWriteTurnArounds        34973                       # Number of turnarounds from READ to WRITE
system.mem_ctrls1.numWriteReadTurnArounds        34973                       # Number of turnarounds from WRITE to READ
system.mem_ctrls1.numStayReadState            1686112                       # Number of times bus staying in READ state
system.mem_ctrls1.numStayWriteState            542614                       # Number of times bus staying in WRITE state
system.mem_ctrls1.readReqs                     599367                       # Number of read requests accepted
system.mem_ctrls1.writeReqs                    577107                       # Number of write requests accepted
system.mem_ctrls1.readBursts                   599367                       # Number of DRAM read bursts, including those serviced by the write queue
system.mem_ctrls1.writeBursts                  577107                       # Number of DRAM write bursts, including those merged in the write queue
system.mem_ctrls1.bytesReadDRAM              38359488                       # Total number of bytes read from DRAM
system.mem_ctrls1.bytesReadWrQ                      0                       # Total number of bytes read from write queue
system.mem_ctrls1.bytesWritten               36931072                       # Total number of bytes written to DRAM
system.mem_ctrls1.bytesReadSys               38359488                       # Total read bytes from the system interface side
system.mem_ctrls1.bytesWrittenSys            36934848                       # Total written bytes from the system interface side
system.mem_ctrls1.servicedByWrQ                     0                       # Number of DRAM read bursts serviced by the write queue
system.mem_ctrls1.mergedWrBursts                    0                       # Number of DRAM write bursts merged with an existing one
system.mem_ctrls1.neitherReadNorWriteReqs            0                       # Number of requests that are neither read nor write
system.mem_ctrls1.perBankRdBursts::0            18692                       # Per bank write bursts
system.mem_ctrls1.perBankRdBursts::1            18878                       # Per bank write bursts
system.mem_ctrls1.perBankRdBursts::2            19367                       # Per bank write bursts
system.mem_ctrls1.perBankRdBursts::3            19023                       # Per bank write bursts
system.mem_ctrls1.perBankRdBursts::4            18733                       # Per bank write bursts
system.mem_ctrls1.perBankRdBursts::5            18729                       # Per bank write bursts
system.mem_ctrls1.perBankRdBursts::6            18703                       # Per bank write bursts
system.mem_ctrls1.perBankRdBursts::7            18751                       # Per bank write bursts
system.mem_ctrls1.perBankRdBursts::8            18728                       # Per bank write bursts
system.mem_ctrls1.perBankRdBursts::9            18733                       # Per bank write bursts
system.mem_ctrls1.perBankRdBursts::10           18792                       # Per bank write bursts
system.mem_ctrls1.perBankRdBursts::11           18831                       # Per bank write bursts
system.mem_ctrls1.perBankRdBursts::12           18933                       # Per bank write bursts
system.mem_ctrls1.perBankRdBursts::13           18804                       # Per bank write bursts
system.mem_ctrls1.perBankRdBursts::14           18674                       # Per bank write bursts
system.mem_ctrls1.perBankRdBursts::15           18584                       # Per bank write bursts
system.mem_ctrls1.perBankRdBursts::16           18479                       # Per bank write bursts
system.mem_ctrls1.perBankRdBursts::17           18508                       # Per bank write bursts
system.mem_ctrls1.perBankRdBursts::18           18592                       # Per bank write bursts
system.mem_ctrls1.perBankRdBursts::19           18637                       # Per bank write bursts
system.mem_ctrls1.perBankRdBursts::20           18762                       # Per bank write bursts
system.mem_ctrls1.perBankRdBursts::21           18746                       # Per bank write bursts
system.mem_ctrls1.perBankRdBursts::22           18754                       # Per bank write bursts
system.mem_ctrls1.perBankRdBursts::23           18730                       # Per bank write bursts
system.mem_ctrls1.perBankRdBursts::24           18716                       # Per bank write bursts
system.mem_ctrls1.perBankRdBursts::25           18660                       # Per bank write bursts
system.mem_ctrls1.perBankRdBursts::26           18619                       # Per bank write bursts
system.mem_ctrls1.perBankRdBursts::27           18611                       # Per bank write bursts
system.mem_ctrls1.perBankRdBursts::28           18710                       # Per bank write bursts
system.mem_ctrls1.perBankRdBursts::29           18652                       # Per bank write bursts
system.mem_ctrls1.perBankRdBursts::30           18547                       # Per bank write bursts
system.mem_ctrls1.perBankRdBursts::31           18689                       # Per bank write bursts
system.mem_ctrls1.perBankWrBursts::0            18052                       # Per bank write bursts
system.mem_ctrls1.perBankWrBursts::1            18051                       # Per bank write bursts
system.mem_ctrls1.perBankWrBursts::2            18167                       # Per bank write bursts
system.mem_ctrls1.perBankWrBursts::3            18148                       # Per bank write bursts
system.mem_ctrls1.perBankWrBursts::4            18051                       # Per bank write bursts
system.mem_ctrls1.perBankWrBursts::5            17976                       # Per bank write bursts
system.mem_ctrls1.perBankWrBursts::6            17986                       # Per bank write bursts
system.mem_ctrls1.perBankWrBursts::7            18052                       # Per bank write bursts
system.mem_ctrls1.perBankWrBursts::8            18051                       # Per bank write bursts
system.mem_ctrls1.perBankWrBursts::9            18050                       # Per bank write bursts
system.mem_ctrls1.perBankWrBursts::10           18115                       # Per bank write bursts
system.mem_ctrls1.perBankWrBursts::11           18179                       # Per bank write bursts
system.mem_ctrls1.perBankWrBursts::12           18177                       # Per bank write bursts
system.mem_ctrls1.perBankWrBursts::13           18088                       # Per bank write bursts
system.mem_ctrls1.perBankWrBursts::14           18026                       # Per bank write bursts
system.mem_ctrls1.perBankWrBursts::15           17932                       # Per bank write bursts
system.mem_ctrls1.perBankWrBursts::16           17922                       # Per bank write bursts
system.mem_ctrls1.perBankWrBursts::17           17923                       # Per bank write bursts
system.mem_ctrls1.perBankWrBursts::18           17923                       # Per bank write bursts
system.mem_ctrls1.perBankWrBursts::19           17922                       # Per bank write bursts
system.mem_ctrls1.perBankWrBursts::20           18051                       # Per bank write bursts
system.mem_ctrls1.perBankWrBursts::21           18083                       # Per bank write bursts
system.mem_ctrls1.perBankWrBursts::22           18148                       # Per bank write bursts
system.mem_ctrls1.perBankWrBursts::23           18066                       # Per bank write bursts
system.mem_ctrls1.perBankWrBursts::24           18054                       # Per bank write bursts
system.mem_ctrls1.perBankWrBursts::25           17959                       # Per bank write bursts
system.mem_ctrls1.perBankWrBursts::26           17952                       # Per bank write bursts
system.mem_ctrls1.perBankWrBursts::27           17979                       # Per bank write bursts
system.mem_ctrls1.perBankWrBursts::28           18018                       # Per bank write bursts
system.mem_ctrls1.perBankWrBursts::29           18006                       # Per bank write bursts
system.mem_ctrls1.perBankWrBursts::30           17923                       # Per bank write bursts
system.mem_ctrls1.perBankWrBursts::31           18018                       # Per bank write bursts
system.mem_ctrls1.numRdRetry                        0                       # Number of times read queue was full causing retry
system.mem_ctrls1.numWrRetry                        0                       # Number of times write queue was full causing retry
system.mem_ctrls1.totGap                  99999841500                       # Total gap between requests
system.mem_ctrls1.readPktSize::0                    0                       # Read request sizes (log2)
system.mem_ctrls1.readPktSize::1                    0                       # Read request sizes (log2)
system.mem_ctrls1.readPktSize::2                    0                       # Read request sizes (log2)
system.mem_ctrls1.readPktSize::3                    0                       # Read request sizes (log2)
system.mem_ctrls1.readPktSize::4                    0                       # Read request sizes (log2)
system.mem_ctrls1.readPktSize::5                    0                       # Read request sizes (log2)
system.mem_ctrls1.readPktSize::6               599367                       # Read request sizes (log2)
system.mem_ctrls1.writePktSize::0                   0                       # Write request sizes (log2)
system.mem_ctrls1.writePktSize::1                   0                       # Write request sizes (log2)
system.mem_ctrls1.writePktSize::2                   0                       # Write request sizes (log2)
system.mem_ctrls1.writePktSize::3                   0                       # Write request sizes (log2)
system.mem_ctrls1.writePktSize::4                   0                       # Write request sizes (log2)
system.mem_ctrls1.writePktSize::5                   0                       # Write request sizes (log2)
system.mem_ctrls1.writePktSize::6              577107                       # Write request sizes (log2)
system.mem_ctrls1.rdQLenPdf::0                 457313                       # What read queue length does an incoming req see
system.mem_ctrls1.rdQLenPdf::1                  70129                       # What read queue length does an incoming req see
system.mem_ctrls1.rdQLenPdf::2                  36047                       # What read queue length does an incoming req see
system.mem_ctrls1.rdQLenPdf::3                  23640                       # What read queue length does an incoming req see
system.mem_ctrls1.rdQLenPdf::4                  10308                       # What read queue length does an incoming req see
system.mem_ctrls1.rdQLenPdf::5                    785                       # What read queue length does an incoming req see
system.mem_ctrls1.rdQLenPdf::6                    534                       # What read queue length does an incoming req see
system.mem_ctrls1.rdQLenPdf::7                    439                       # What read queue length does an incoming req see
system.mem_ctrls1.rdQLenPdf::8                    171                       # What read queue length does an incoming req see
system.mem_ctrls1.rdQLenPdf::9                      1                       # What read queue length does an incoming req see
system.mem_ctrls1.rdQLenPdf::10                     0                       # What read queue length does an incoming req see
system.mem_ctrls1.rdQLenPdf::11                     0                       # What read queue length does an incoming req see
system.mem_ctrls1.rdQLenPdf::12                     0                       # What read queue length does an incoming req see
system.mem_ctrls1.rdQLenPdf::13                     0                       # What read queue length does an incoming req see
system.mem_ctrls1.rdQLenPdf::14                     0                       # What read queue length does an incoming req see
system.mem_ctrls1.rdQLenPdf::15                     0                       # What read queue length does an incoming req see
system.mem_ctrls1.rdQLenPdf::16                     0                       # What read queue length does an incoming req see
system.mem_ctrls1.rdQLenPdf::17                     0                       # What read queue length does an incoming req see
system.mem_ctrls1.rdQLenPdf::18                     0                       # What read queue length does an incoming req see
system.mem_ctrls1.rdQLenPdf::19                     0                       # What read queue length does an incoming req see
system.mem_ctrls1.rdQLenPdf::20                     0                       # What read queue length does an incoming req see
system.mem_ctrls1.rdQLenPdf::21                     0                       # What read queue length does an incoming req see
system.mem_ctrls1.rdQLenPdf::22                     0                       # What read queue length does an incoming req see
system.mem_ctrls1.rdQLenPdf::23                     0                       # What read queue length does an incoming req see
system.mem_ctrls1.rdQLenPdf::24                     0                       # What read queue length does an incoming req see
system.mem_ctrls1.rdQLenPdf::25                     0                       # What read queue length does an incoming req see
system.mem_ctrls1.rdQLenPdf::26                     0                       # What read queue length does an incoming req see
system.mem_ctrls1.rdQLenPdf::27                     0                       # What read queue length does an incoming req see
system.mem_ctrls1.rdQLenPdf::28                     0                       # What read queue length does an incoming req see
system.mem_ctrls1.rdQLenPdf::29                     0                       # What read queue length does an incoming req see
system.mem_ctrls1.rdQLenPdf::30                     0                       # What read queue length does an incoming req see
system.mem_ctrls1.rdQLenPdf::31                     0                       # What read queue length does an incoming req see
system.mem_ctrls1.rdQLenPdf::32                     0                       # What read queue length does an incoming req see
system.mem_ctrls1.rdQLenPdf::33                     0                       # What read queue length does an incoming req see
system.mem_ctrls1.rdQLenPdf::34                     0                       # What read queue length does an incoming req see
system.mem_ctrls1.rdQLenPdf::35                     0                       # What read queue length does an incoming req see
system.mem_ctrls1.rdQLenPdf::36                     0                       # What read queue length does an incoming req see
system.mem_ctrls1.rdQLenPdf::37                     0                       # What read queue length does an incoming req see
system.mem_ctrls1.rdQLenPdf::38                     0                       # What read queue length does an incoming req see
system.mem_ctrls1.rdQLenPdf::39                     0                       # What read queue length does an incoming req see
system.mem_ctrls1.rdQLenPdf::40                     0                       # What read queue length does an incoming req see
system.mem_ctrls1.rdQLenPdf::41                     0                       # What read queue length does an incoming req see
system.mem_ctrls1.rdQLenPdf::42                     0                       # What read queue length does an incoming req see
system.mem_ctrls1.rdQLenPdf::43                     0                       # What read queue length does an incoming req see
system.mem_ctrls1.rdQLenPdf::44                     0                       # What read queue length does an incoming req see
system.mem_ctrls1.rdQLenPdf::45                     0                       # What read queue length does an incoming req see
system.mem_ctrls1.rdQLenPdf::46                     0                       # What read queue length does an incoming req see
system.mem_ctrls1.rdQLenPdf::47                     0                       # What read queue length does an incoming req see
system.mem_ctrls1.rdQLenPdf::48                     0                       # What read queue length does an incoming req see
system.mem_ctrls1.rdQLenPdf::49                     0                       # What read queue length does an incoming req see
system.mem_ctrls1.rdQLenPdf::50                     0                       # What read queue length does an incoming req see
system.mem_ctrls1.rdQLenPdf::51                     0                       # What read queue length does an incoming req see
system.mem_ctrls1.rdQLenPdf::52                     0                       # What read queue length does an incoming req see
system.mem_ctrls1.rdQLenPdf::53                     0                       # What read queue length does an incoming req see
system.mem_ctrls1.rdQLenPdf::54                     0                       # What read queue length does an incoming req see
system.mem_ctrls1.rdQLenPdf::55                     0                       # What read queue length does an incoming req see
system.mem_ctrls1.rdQLenPdf::56                     0                       # What read queue length does an incoming req see
system.mem_ctrls1.rdQLenPdf::57                     0                       # What read queue length does an incoming req see
system.mem_ctrls1.rdQLenPdf::58                     0                       # What read queue length does an incoming req see
system.mem_ctrls1.rdQLenPdf::59                     0                       # What read queue length does an incoming req see
system.mem_ctrls1.rdQLenPdf::60                     0                       # What read queue length does an incoming req see
system.mem_ctrls1.rdQLenPdf::61                     0                       # What read queue length does an incoming req see
system.mem_ctrls1.rdQLenPdf::62                     0                       # What read queue length does an incoming req see
system.mem_ctrls1.rdQLenPdf::63                     0                       # What read queue length does an incoming req see
system.mem_ctrls1.wrQLenPdf::0                      1                       # What write queue length does an incoming req see
system.mem_ctrls1.wrQLenPdf::1                      1                       # What write queue length does an incoming req see
system.mem_ctrls1.wrQLenPdf::2                      1                       # What write queue length does an incoming req see
system.mem_ctrls1.wrQLenPdf::3                      1                       # What write queue length does an incoming req see
system.mem_ctrls1.wrQLenPdf::4                      1                       # What write queue length does an incoming req see
system.mem_ctrls1.wrQLenPdf::5                      1                       # What write queue length does an incoming req see
system.mem_ctrls1.wrQLenPdf::6                      1                       # What write queue length does an incoming req see
system.mem_ctrls1.wrQLenPdf::7                      1                       # What write queue length does an incoming req see
system.mem_ctrls1.wrQLenPdf::8                      1                       # What write queue length does an incoming req see
system.mem_ctrls1.wrQLenPdf::9                      1                       # What write queue length does an incoming req see
system.mem_ctrls1.wrQLenPdf::10                     1                       # What write queue length does an incoming req see
system.mem_ctrls1.wrQLenPdf::11                     1                       # What write queue length does an incoming req see
system.mem_ctrls1.wrQLenPdf::12                     1                       # What write queue length does an incoming req see
system.mem_ctrls1.wrQLenPdf::13                     1                       # What write queue length does an incoming req see
system.mem_ctrls1.wrQLenPdf::14                     1                       # What write queue length does an incoming req see
system.mem_ctrls1.wrQLenPdf::15                     1                       # What write queue length does an incoming req see
system.mem_ctrls1.wrQLenPdf::16                     1                       # What write queue length does an incoming req see
system.mem_ctrls1.wrQLenPdf::17                     1                       # What write queue length does an incoming req see
[...]
system.l2.ReadCleanReq_mshr_hits::.cpu.inst            2                       # number of ReadCleanReq MSHR hits
system.l2.ReadCleanReq_mshr_hits::total             2                       # number of ReadCleanReq MSHR hits
system.l2.ReadSharedReq_mshr_hits::.cpu.data            2                       # number of ReadSharedReq MSHR hits
system.l2.ReadSharedReq_mshr_hits::total            2                       # number of ReadSharedReq MSHR hits
system.l2.demand_mshr_hits::.cpu.inst               2                       # number of demand (read+write) MSHR hits
system.l2.demand_mshr_hits::.cpu.data             145                       # number of demand (read+write) MSHR hits
system.l2.demand_mshr_hits::total                 147                       # number of demand (read+write) MSHR hits
system.l2.overall_mshr_hits::.cpu.inst              2                       # number of overall MSHR hits
system.l2.overall_mshr_hits::.cpu.data            145                       # number of overall MSHR hits
system.l2.overall_mshr_hits::total                147                       # number of overall MSHR hits
system.l2.HardPFReq_mshr_misses::.l2.prefetcher      1168041                       # number of HardPFReq MSHR misses
system.l2.HardPFReq_mshr_misses::total        1168041                       # number of HardPFReq MSHR misses
system.l2.UpgradeReq_mshr_misses::.cpu.data          586                       # number of UpgradeReq MSHR misses
system.l2.UpgradeReq_mshr_misses::total           586                       # number of UpgradeReq MSHR misses
system.l2.ReadExReq_mshr_misses::.cpu.data        22897                       # number of ReadExReq MSHR misses
system.l2.ReadExReq_mshr_misses::total          22897                       # number of ReadExReq MSHR misses
system.l2.ReadCleanReq_mshr_misses::.cpu.inst         9322                       # number of ReadCleanReq MSHR misses
system.l2.ReadCleanReq_mshr_misses::total         9322                       # number of ReadCleanReq MSHR misses
system.l2.ReadSharedReq_mshr_misses::.cpu.data         2152                       # number of ReadSharedReq MSHR misses
system.l2.ReadSharedReq_mshr_misses::total         2152                       # number of ReadSharedReq MSHR misses
system.l2.demand_mshr_misses::.cpu.inst          9322                       # number of demand (read+write) MSHR misses
system.l2.demand_mshr_misses::.cpu.data         25049                       # number of demand (read+write) MSHR misses
system.l2.demand_mshr_misses::total             34371                       # number of demand (read+write) MSHR misses
system.l2.overall_mshr_misses::.cpu.inst         9322                       # number of overall MSHR misses
system.l2.overall_mshr_misses::.cpu.data        25049                       # number of overall MSHR misses
system.l2.overall_mshr_misses::.l2.prefetcher      1168041                       # number of overall MSHR misses
system.l2.overall_mshr_misses::total          1202412                       # number of overall MSHR misses
system.l2.HardPFReq_mshr_miss_latency::.l2.prefetcher  91716966622                       # number of HardPFReq MSHR miss cycles
system.l2.HardPFReq_mshr_miss_latency::total  91716966622                       # number of HardPFReq MSHR miss cycles
system.l2.UpgradeReq_mshr_miss_latency::.cpu.data     17831000                       # number of UpgradeReq MSHR miss cycles
system.l2.UpgradeReq_mshr_miss_latency::total     17831000                       # number of UpgradeReq MSHR miss cycles
system.l2.ReadExReq_mshr_miss_latency::.cpu.data   3059892000                       # number of ReadExReq MSHR miss cycles
system.l2.ReadExReq_mshr_miss_latency::total   3059892000                       # number of ReadExReq MSHR miss cycles
system.l2.ReadCleanReq_mshr_miss_latency::.cpu.inst   1511622500                       # number of ReadCleanReq MSHR miss cycles
system.l2.ReadCleanReq_mshr_miss_latency::total   1511622500                       # number of ReadCleanReq MSHR miss cycles
system.l2.ReadSharedReq_mshr_miss_latency::.cpu.data    400246500                       # number of ReadSharedReq MSHR miss cycles
system.l2.ReadSharedReq_mshr_miss_latency::total    400246500                       # number of ReadSharedReq MSHR miss cycles
system.l2.demand_mshr_miss_latency::.cpu.inst   1511622500                       # number of demand (read+write) MSHR miss cycles
system.l2.demand_mshr_miss_latency::.cpu.data   3460138500                       # number of demand (read+write) MSHR miss cycles
system.l2.demand_mshr_miss_latency::total   4971761000                       # number of demand (read+write) MSHR miss cycles
system.l2.overall_mshr_miss_latency::.cpu.inst   1511622500                       # number of overall MSHR miss cycles
system.l2.overall_mshr_miss_latency::.cpu.data   3460138500                       # number of overall MSHR miss cycles
system.l2.overall_mshr_miss_latency::.l2.prefetcher  91716966622                       # number of overall MSHR miss cycles
system.l2.overall_mshr_miss_latency::total  96688727622                       # number of overall MSHR miss cycles
system.l2.HardPFReq_mshr_miss_rate::.l2.prefetcher          inf                       # mshr miss rate for HardPFReq accesses
system.l2.HardPFReq_mshr_miss_rate::total          inf                       # mshr miss rate for HardPFReq accesses
system.l2.UpgradeReq_mshr_miss_rate::.cpu.data     0.994907                       # mshr miss rate for UpgradeReq accesses
system.l2.UpgradeReq_mshr_miss_rate::total     0.994907                       # mshr miss rate for UpgradeReq accesses
system.l2.ReadExReq_mshr_miss_rate::.cpu.data     0.019167                       # mshr miss rate for ReadExReq accesses
system.l2.ReadExReq_mshr_miss_rate::total     0.019167                       # mshr miss rate for ReadExReq accesses
system.l2.ReadCleanReq_mshr_miss_rate::.cpu.inst     0.027348                       # mshr miss rate for ReadCleanReq accesses
system.l2.ReadCleanReq_mshr_miss_rate::total     0.027348                       # mshr miss rate for ReadCleanReq accesses
system.l2.ReadSharedReq_mshr_miss_rate::.cpu.data     0.016401                       # mshr miss rate for ReadSharedReq accesses
system.l2.ReadSharedReq_mshr_miss_rate::total     0.016401                       # mshr miss rate for ReadSharedReq accesses
system.l2.demand_mshr_miss_rate::.cpu.inst     0.027348                       # mshr miss rate for demand accesses
system.l2.demand_mshr_miss_rate::.cpu.data     0.018893                       # mshr miss rate for demand accesses
system.l2.demand_mshr_miss_rate::total       0.020623                       # mshr miss rate for demand accesses
system.l2.overall_mshr_miss_rate::.cpu.inst     0.027348                       # mshr miss rate for overall accesses
system.l2.overall_mshr_miss_rate::.cpu.data     0.018893                       # mshr miss rate for overall accesses
system.l2.overall_mshr_miss_rate::.l2.prefetcher          inf                       # mshr miss rate for overall accesses
system.l2.overall_mshr_miss_rate::total      0.721447                       # mshr miss rate for overall accesses
system.l2.HardPFReq_avg_mshr_miss_latency::.l2.prefetcher 78522.043851                       # average HardPFReq mshr miss latency
system.l2.HardPFReq_avg_mshr_miss_latency::total 78522.043851                       # average HardPFReq mshr miss latency
system.l2.UpgradeReq_avg_mshr_miss_latency::.cpu.data 30428.327645                       # average UpgradeReq mshr miss latency
system.l2.UpgradeReq_avg_mshr_miss_latency::total 30428.327645                       # average UpgradeReq mshr miss latency
system.l2.ReadExReq_avg_mshr_miss_latency::.cpu.data 133637.245054                       # average ReadExReq mshr miss latency
system.l2.ReadExReq_avg_mshr_miss_latency::total 133637.245054                       # average ReadExReq mshr miss latency
system.l2.ReadCleanReq_avg_mshr_miss_latency::.cpu.inst 162156.457842                       # average ReadCleanReq mshr miss latency
system.l2.ReadCleanReq_avg_mshr_miss_latency::total 162156.457842                       # average ReadCleanReq mshr miss latency
system.l2.ReadSharedReq_avg_mshr_miss_latency::.cpu.data 185988.150558                       # average ReadSharedReq mshr miss latency
system.l2.ReadSharedReq_avg_mshr_miss_latency::total 185988.150558                       # average ReadSharedReq mshr miss latency
system.l2.demand_avg_mshr_miss_latency::.cpu.inst 162156.457842                       # average overall mshr miss latency
system.l2.demand_avg_mshr_miss_latency::.cpu.data 138134.795800                       # average overall mshr miss latency
system.l2.demand_avg_mshr_miss_latency::total 144649.879259                       # average overall mshr miss latency
system.l2.overall_avg_mshr_miss_latency::.cpu.inst 162156.457842                       # average overall mshr miss latency
system.l2.overall_avg_mshr_miss_latency::.cpu.data 138134.795800                       # average overall mshr miss latency
system.l2.overall_avg_mshr_miss_latency::.l2.prefetcher 78522.043851                       # average overall mshr miss latency
system.l2.overall_avg_mshr_miss_latency::total 80412.310940                       # average overall mshr miss latency
system.l2.replacements                        1164394                       # number of replacements
system.membus.snoop_filter.tot_requests       2363325                       # Total number of requests made to the snoop filter.
system.membus.snoop_filter.hit_single_requests      1165627                       # Number of requests hitting in the snoop filter with a single holder of the requested data.
system.membus.snoop_filter.hit_multi_requests            0                       # Number of requests hitting in the snoop filter with multiple (>1) holders of the requested data.
system.membus.snoop_filter.tot_snoops               0                       # Total number of snoops made to the snoop filter.
system.membus.snoop_filter.hit_single_snoops            0                       # Number of snoops hitting in the snoop filter with a single holder of the requested data.
system.membus.snoop_filter.hit_multi_snoops            0                       # Number of snoops hitting in the snoop filter with multiple (>1) holders of the requested data.
system.membus.pwrStateResidencyTicks::UNDEFINED 100000000000                       # Cumulative time (in ticks) in various power states
system.membus.trans_dist::ReadResp            1175447                       # Transaction distribution
system.membus.trans_dist::WritebackDirty      1154208                       # Transaction distribution
system.membus.trans_dist::CleanEvict            10186                       # Transaction distribution
system.membus.trans_dist::UpgradeReq              590                       # Transaction distribution
system.membus.trans_dist::ReadExReq             22893                       # Transaction distribution
system.membus.trans_dist::ReadExResp            22893                       # Transaction distribution
system.membus.trans_dist::ReadCleanReq        1175448                       # Transaction distribution
system.membus.pkt_count_system.l2.mem_side::system.mem_ctrls0.port      1780505                       # Packet count per connected master and slave (bytes)
system.membus.pkt_count_system.l2.mem_side::system.mem_ctrls1.port      1781160                       # Packet count per connected master and slave (bytes)
system.membus.pkt_count_system.l2.mem_side::total      3561665                       # Packet count per connected master and slave (bytes)
system.membus.pkt_count::total                3561665                       # Packet count per connected master and slave (bytes)
system.membus.pkt_size_system.l2.mem_side::system.mem_ctrls0.port     75268736                       # Cumulative packet size per connected master and slave (bytes)
system.membus.pkt_size_system.l2.mem_side::system.mem_ctrls1.port     75294336                       # Cumulative packet size per connected master and slave (bytes)
system.membus.pkt_size_system.l2.mem_side::total    150563072                       # Cumulative packet size per connected master and slave (bytes)
system.membus.pkt_size::total               150563072                       # Cumulative packet size per connected master and slave (bytes)
system.membus.snoops                                0                       # Total snoops (count)
system.membus.snoopTraffic                          0                       # Total snoop traffic (bytes)
system.membus.snoop_fanout::samples           1198931                       # Request fanout histogram
system.membus.snoop_fanout::mean                    0                       # Request fanout histogram
system.membus.snoop_fanout::stdev                   0                       # Request fanout histogram
system.membus.snoop_fanout::underflows              0      0.00%      0.00% # Request fanout histogram
system.membus.snoop_fanout::0                 1198931    100.00%    100.00% # Request fanout histogram
system.membus.snoop_fanout::1                       0      0.00%    100.00% # Request fanout histogram
system.membus.snoop_fanout::overflows               0      0.00%    100.00% # Request fanout histogram
system.membus.snoop_fanout::min_value               0                       # Request fanout histogram
system.membus.snoop_fanout::max_value               0                       # Request fanout histogram
system.membus.snoop_fanout::total             1198931                       # Request fanout histogram
system.membus.reqLayer2.occupancy          3914945741                       # Layer occupancy (ticks)
system.membus.reqLayer2.utilization               3.9                       # Layer utilization (%)
system.membus.reqLayer3.occupancy          3915135252                       # Layer occupancy (ticks)
system.membus.reqLayer3.utilization               3.9                       # Layer utilization (%)
system.membus.respLayer1.occupancy         6442599322                       # Layer occupancy (ticks)
system.membus.respLayer1.utilization              6.4                       # Layer utilization (%)
system.tol2bus.snoop_filter.tot_requests      3333378                       # Total number of requests made to the snoop filter.
system.tol2bus.snoop_filter.hit_single_requests      1665423                       # Number of requests hitting in the snoop filter with a single holder of the requested data.
system.tol2bus.snoop_filter.hit_multi_requests         3743                       # Number of requests hitting in the snoop filter with multiple (>1) holders of the requested data.
system.tol2bus.snoop_filter.tot_snoops           4151                       # Total number of snoops made to the snoop filter.
system.tol2bus.snoop_filter.hit_single_snoops         4131                       # Number of snoops hitting in the snoop filter with a single holder of the requested data.
system.tol2bus.snoop_filter.hit_multi_snoops           20                       # Number of snoops hitting in the snoop filter with multiple (>1) holders of the requested data.
system.tol2bus.pwrStateResidencyTicks::UNDEFINED 100000000000                       # Cumulative time (in ticks) in various power states
system.tol2bus.trans_dist::ReadResp            472837                       # Transaction distribution
system.tol2bus.trans_dist::WritebackDirty      2468706                       # Transaction distribution
system.tol2bus.trans_dist::WritebackClean       350862                       # Transaction distribution
system.tol2bus.trans_dist::CleanEvict           10186                       # Transaction distribution
system.tol2bus.trans_dist::HardPFReq          1250392                       # Transaction distribution
system.tol2bus.trans_dist::HardPFResp               1                       # Transaction distribution
system.tol2bus.trans_dist::UpgradeReq             589                       # Transaction distribution
system.tol2bus.trans_dist::UpgradeResp            589                       # Transaction distribution
system.tol2bus.trans_dist::ReadExReq          1194592                       # Transaction distribution
system.tol2bus.trans_dist::ReadExResp         1194592                       # Transaction distribution
system.tol2bus.trans_dist::ReadCleanReq        341624                       # Transaction distribution
system.tol2bus.trans_dist::ReadSharedReq       131213                       # Transaction distribution
system.tol2bus.pkt_count_system.cpu.icache.mem_side::system.l2.cpu_side      1023067                       # Packet count per connected master and slave (bytes)
system.tol2bus.pkt_count_system.cpu.dcache.mem_side::system.l2.cpu_side      3977569                       # Packet count per connected master and slave (bytes)
system.tol2bus.pkt_count::total               5000636                       # Packet count per connected master and slave (bytes)
system.tol2bus.pkt_size_system.cpu.icache.mem_side::system.l2.cpu_side     43612352                       # Cumulative packet size per connected master and slave (bytes)
system.tol2bus.pkt_size_system.cpu.dcache.mem_side::system.l2.cpu_side    169637504                       # Cumulative packet size per connected master and slave (bytes)
system.tol2bus.pkt_size::total              213249856                       # Cumulative packet size per connected master and slave (bytes)
system.tol2bus.snoops                         2415548                       # Total snoops (count)
system.tol2bus.snoopTraffic                  73918080                       # Total snoop traffic (bytes)
system.tol2bus.snoop_fanout::samples          4082804                       # Request fanout histogram
system.tol2bus.snoop_fanout::mean            0.001938                       # Request fanout histogram
system.tol2bus.snoop_fanout::stdev           0.044096                       # Request fanout histogram
system.tol2bus.snoop_fanout::underflows             0      0.00%      0.00% # Request fanout histogram
system.tol2bus.snoop_fanout::0                4074910     99.81%     99.81% # Request fanout histogram
system.tol2bus.snoop_fanout::1                   7874      0.19%    100.00% # Request fanout histogram
system.tol2bus.snoop_fanout::2                     20      0.00%    100.00% # Request fanout histogram
system.tol2bus.snoop_fanout::3                      0      0.00%    100.00% # Request fanout histogram
system.tol2bus.snoop_fanout::4                      0      0.00%    100.00% # Request fanout histogram
system.tol2bus.snoop_fanout::overflows              0      0.00%    100.00% # Request fanout histogram
system.tol2bus.snoop_fanout::min_value              0                       # Request fanout histogram
system.tol2bus.snoop_fanout::max_value              2                       # Request fanout histogram
system.tol2bus.snoop_fanout::total            4082804                       # Request fanout histogram
system.tol2bus.reqLayer0.occupancy         3332049503                       # Layer occupancy (ticks)
system.tol2bus.reqLayer0.utilization              3.3                       # Layer utilization (%)
system.tol2bus.snoopLayer0.occupancy             1505                       # Layer occupancy (ticks)
system.tol2bus.snoopLayer0.utilization            0.0                       # Layer utilization (%)
system.tol2bus.respLayer0.occupancy         512452467                       # Layer occupancy (ticks)
system.tol2bus.respLayer0.utilization             0.5                       # Layer utilization (%)
system.tol2bus.respLayer1.occupancy        1989025952                       # Layer occupancy (ticks)
system.tol2bus.respLayer1.utilization             2.0                       # Layer utilization (%)

---------- End Simulation Statistics   ----------
