
---------- Begin Simulation Statistics ----------
sim_seconds                                  0.100000                       # Number of seconds simulated
sim_ticks                                100000000000                       # Number of ticks simulated
final_tick                               100000000000                       # Number of ticks from beginning of simulation (restored from checkpoints and never reset)
sim_freq                                 1000000000000                       # Frequency of simulated ticks
host_inst_rate                                  20707                       # Simulator instruction rate (inst/s)
host_op_rate                                    40209                       # Simulator op (including micro ops) rate (op/s)
host_tick_rate                               10784452                       # Simulator tick rate (ticks/s)
host_mem_usage                               67311180                       # Number of bytes of host memory used
host_seconds                                  9272.61                       # Real time elapsed on the host
sim_insts                                   192003359                       # Number of instructions simulated
sim_ops                                     372844396                       # Number of ops (including micro ops) simulated
system.voltage_domain.voltage                       1                       # Voltage in Volts
system.clk_domain.clock                          1000                       # Clock period in ticks
system.mem_ctrls0.pwrStateResidencyTicks::UNDEFINED 100000000000                       # Cumulative time (in ticks) in various power states
system.mem_ctrls0.bytes_read::.cpu.inst         23488                       # Number of bytes read from this memory
system.mem_ctrls0.bytes_read::.cpu.data       8438592                       # Number of bytes read from this memory
system.mem_ctrls0.bytes_read::.l2.prefetcher        88640                       # Number of bytes read from this memory
system.mem_ctrls0.bytes_read::total           8550720                       # Number of bytes read from this memory
system.mem_ctrls0.bytes_inst_read::.cpu.inst        23488                       # Number of instructions bytes read from this memory
system.mem_ctrls0.bytes_inst_read::total        23488                       # Number of instructions bytes read from this memory
system.mem_ctrls0.bytes_written::.writebacks      7434816                       # Number of bytes written to this memory
system.mem_ctrls0.bytes_written::total        7434816                       # Number of bytes written to this memory
system.mem_ctrls0.num_reads::.cpu.inst            367                       # Number of read requests responded to by this memory
system.mem_ctrls0.num_reads::.cpu.data         131853                       # Number of read requests responded to by this memory
system.mem_ctrls0.num_reads::.l2.prefetcher         1385                       # Number of read requests responded to by this memory
system.mem_ctrls0.num_reads::total             133605                       # Number of read requests responded to by this memory
system.mem_ctrls0.num_writes::.writebacks       116169                       # Number of write requests responded to by this memory
system.mem_ctrls0.num_writes::total            116169                       # Number of write requests responded to by this memory
system.mem_ctrls0.bw_read::.cpu.inst           234880                       # Total read bandwidth from this memory (bytes/s)
system.mem_ctrls0.bw_read::.cpu.data         84385920                       # Total read bandwidth from this memory (bytes/s)
system.mem_ctrls0.bw_read::.l2.prefetcher       886400                       # Total read bandwidth from this memory (bytes/s)
system.mem_ctrls0.bw_read::total             85507200                       # Total read bandwidth from this memory (bytes/s)
system.mem_ctrls0.bw_inst_read::.cpu.inst       234880                       # Instruction read bandwidth from this memory (bytes/s)
system.mem_ctrls0.bw_inst_read::total          234880                       # Instruction read bandwidth from this memory (bytes/s)
system.mem_ctrls0.bw_write::.writebacks      74348160                       # Write bandwidth from this memory (bytes/s)
system.mem_ctrls0.bw_write::total            74348160                       # Write bandwidth from this memory (bytes/s)
system.mem_ctrls0.bw_total::.writebacks      74348160                       # Total bandwidth to/from this memory (bytes/s)
system.mem_ctrls0.bw_total::.cpu.inst          234880                       # Total bandwidth to/from this memory (bytes/s)
system.mem_ctrls0.bw_total::.cpu.data        84385920                       # Total bandwidth to/from this memory (bytes/s)
system.mem_ctrls0.bw_total::.l2.prefetcher       886400                       # Total bandwidth to/from this memory (bytes/s)
system.mem_ctrls0.bw_total::total           159855360                       # Total bandwidth to/from this memory (bytes/s)
system.mem_ctrls0.avgPriority_.writebacks::samples    116169.00                       # Average QoS priority value for accepted requests
system.mem_ctrls0.avgPriority_.cpu.inst::samples       367.00                       # Average QoS priority value for accepted requests
system.mem_ctrls0.avgPriority_.cpu.data::samples    131829.00                       # Average QoS priority value for accepted requests
system.mem_ctrls0.avgPriority_.l2.prefetcher::samples      1385.00                       # Average QoS priority value for accepted requests
system.mem_ctrls0.priorityMinLatency     0.000000017492                       # per QoS priority minimum request to response latency (s)
system.mem_ctrls0.priorityMaxLatency     0.001802951652                       # per QoS priority maximum request to response latency (s)
system.mem_ctrls0.numReadWriteTurnArounds         6553                       # Number of turnarounds from READ to WRITE
system.mem_ctrls0.numWriteReadTurnArounds         6553                       # Number of turnarounds from WRITE to READ
system.mem_ctrls0.numStayReadState             404296                       # Number of times bus staying in READ state
system.mem_ctrls0.numStayWriteState            109593                       # Number of times bus staying in WRITE state
system.mem_ctrls0.readReqs                     133605                       # Number of read requests accepted
system.mem_ctrls0.writeReqs                    116169                       # Number of write requests accepted
system.mem_ctrls0.readBursts                   133605                       # Number of DRAM read bursts, including those serviced by the write queue
system.mem_ctrls0.writeBursts                  116169                       # Number of DRAM write bursts, including those merged in the write queue
system.mem_ctrls0.bytesReadDRAM               8549184                       # Total number of bytes read from DRAM
system.mem_ctrls0.bytesReadWrQ                   1536                       # Total number of bytes read from write queue
system.mem_ctrls0.bytesWritten                7431296                       # Total number of bytes written to DRAM
system.mem_ctrls0.bytesReadSys                8550720                       # Total read bytes from the system interface side
system.mem_ctrls0.bytesWrittenSys             7434816                       # Total written bytes from the system interface side
system.mem_ctrls0.servicedByWrQ                    24                       # Number of DRAM read bursts serviced by the write queue
system.mem_ctrls0.mergedWrBursts                    0                       # Number of DRAM write bursts merged with an existing one
system.mem_ctrls0.neitherReadNorWriteReqs            0                       # Number of requests that are neither read nor write
system.mem_ctrls0.perBankRdBursts::0             4321                       # Per bank write bursts
system.mem_ctrls0.perBankRdBursts::1             4306                       # Per bank write bursts
system.mem_ctrls0.perBankRdBursts::2             4286                       # Per bank write bursts
system.mem_ctrls0.perBankRdBursts::3             4260                       # Per bank write bursts
system.mem_ctrls0.perBankRdBursts::4             4234                       # Per bank write bursts
system.mem_ctrls0.perBankRdBursts::5             4135                       # Per bank write bursts
system.mem_ctrls0.perBankRdBursts::6             4191                       # Per bank write bursts
system.mem_ctrls0.perBankRdBursts::7             4094                       # Per bank write bursts
system.mem_ctrls0.perBankRdBursts::8             4114                       # Per bank write bursts
system.mem_ctrls0.perBankRdBursts::9             4036                       # Per bank write bursts
system.mem_ctrls0.perBankRdBursts::10            4031                       # Per bank write bursts
system.mem_ctrls0.perBankRdBursts::11            4102                       # Per bank write bursts
system.mem_ctrls0.perBankRdBursts::12            4136                       # Per bank write bursts
system.mem_ctrls0.perBankRdBursts::13            4158                       # Per bank write bursts
system.mem_ctrls0.perBankRdBursts::14            4238                       # Per bank write bursts
system.mem_ctrls0.perBankRdBursts::15            4309                       # Per bank write bursts
system.mem_ctrls0.perBankRdBursts::16            4312                       # Per bank write bursts
system.mem_ctrls0.perBankRdBursts::17            4434                       # Per bank write bursts
system.mem_ctrls0.perBankRdBursts::18            4351                       # Per bank write bursts
system.mem_ctrls0.perBankRdBursts::19            4300                       # Per bank write bursts
system.mem_ctrls0.perBankRdBursts::20            4225                       # Per bank write bursts
system.mem_ctrls0.perBankRdBursts::21            4182                       # Per bank write bursts
system.mem_ctrls0.perBankRdBursts::22            4156                       # Per bank write bursts
system.mem_ctrls0.perBankRdBursts::23            4072                       # Per bank write bursts
system.mem_ctrls0.perBankRdBursts::24            4055                       # Per bank write bursts
system.mem_ctrls0.perBankRdBursts::25            4014                       # Per bank write bursts
system.mem_ctrls0.perBankRdBursts::26            4045                       # Per bank write bursts
system.mem_ctrls0.perBankRdBursts::27            4029                       # Per bank write bursts
system.mem_ctrls0.perBankRdBursts::28            4009                       # Per bank write bursts
system.mem_ctrls0.perBankRdBursts::29            4126                       # Per bank write bursts
system.mem_ctrls0.perBankRdBursts::30            4115                       # Per bank write bursts
system.mem_ctrls0.perBankRdBursts::31            4205                       # Per bank write bursts
system.mem_ctrls0.perBankWrBursts::0             3790                       # Per bank write bursts
system.mem_ctrls0.perBankWrBursts::1             3795                       # Per bank write bursts
system.mem_ctrls0.perBankWrBursts::2             3717                       # Per bank write bursts
system.mem_ctrls0.perBankWrBursts::3             3657                       # Per bank write bursts
system.mem_ctrls0.perBankWrBursts::4             3635                       # Per bank write bursts
system.mem_ctrls0.perBankWrBursts::5             3556                       # Per bank write bursts
system.mem_ctrls0.perBankWrBursts::6             3545                       # Per bank write bursts
system.mem_ctrls0.perBankWrBursts::7             3530                       # Per bank write bursts
system.mem_ctrls0.perBankWrBursts::8             3533                       # Per bank write bursts
system.mem_ctrls0.perBankWrBursts::9             3544                       # Per bank write bursts
system.mem_ctrls0.perBankWrBursts::10            3522                       # Per bank write bursts
system.mem_ctrls0.perBankWrBursts::11            3606                       # Per bank write bursts
system.mem_ctrls0.perBankWrBursts::12            3592                       # Per bank write bursts
system.mem_ctrls0.perBankWrBursts::13            3685                       # Per bank write bursts
system.mem_ctrls0.perBankWrBursts::14            3699                       # Per bank write bursts
system.mem_ctrls0.perBankWrBursts::15            3695                       # Per bank write bursts
system.mem_ctrls0.perBankWrBursts::16            3757                       # Per bank write bursts
system.mem_ctrls0.perBankWrBursts::17            3855                       # Per bank write bursts
system.mem_ctrls0.perBankWrBursts::18            3827                       # Per bank write bursts
system.mem_ctrls0.perBankWrBursts::19            3754                       # Per bank write bursts
system.mem_ctrls0.perBankWrBursts::20            3694                       # Per bank write bursts
system.mem_ctrls0.perBankWrBursts::21            3657                       # Per bank write bursts
system.mem_ctrls0.perBankWrBursts::22            3596                       # Per bank write bursts
system.mem_ctrls0.perBankWrBursts::23            3561                       # Per bank write bursts
system.mem_ctrls0.perBankWrBursts::24            3539                       # Per bank write bursts
system.mem_ctrls0.perBankWrBursts::25            3437                       # Per bank write bursts
system.mem_ctrls0.perBankWrBursts::26            3493                       # Per bank write bursts
system.mem_ctrls0.perBankWrBursts::27            3460                       # Per bank write bursts
system.mem_ctrls0.perBankWrBursts::28            3485                       # Per bank write bursts
system.mem_ctrls0.perBankWrBursts::29            3565                       # Per bank write bursts
system.mem_ctrls0.perBankWrBursts::30            3592                       # Per bank write bursts
system.mem_ctrls0.perBankWrBursts::31            3741                       # Per bank write bursts
system.mem_ctrls0.numRdRetry                        0                       # Number of times read queue was full causing retry
system.mem_ctrls0.numWrRetry                        0                       # Number of times write queue was full causing retry
system.mem_ctrls0.totGap                  99999051000                       # Total gap between requests
system.mem_ctrls0.readPktSize::0                    0                       # Read request sizes (log2)
system.mem_ctrls0.readPktSize::1                    0                       # Read request sizes (log2)
system.mem_ctrls0.readPktSize::2                    0                       # Read request sizes (log2)
system.mem_ctrls0.readPktSize::3                    0                       # Read request sizes (log2)
system.mem_ctrls0.readPktSize::4                    0                       # Read request sizes (log2)
system.mem_ctrls0.readPktSize::5                    0                       # Read request sizes (log2)
system.mem_ctrls0.readPktSize::6               133605                       # Read request sizes (log2)
system.mem_ctrls0.writePktSize::0                   0                       # Write request sizes (log2)
system.mem_ctrls0.writePktSize::1                   0                       # Write request sizes (log2)
system.mem_ctrls0.writePktSize::2                   0                       # Write request sizes (log2)
system.mem_ctrls0.writePktSize::3                   0                       # Write request sizes (log2)
system.mem_ctrls0.writePktSize::4                   0                       # Write request sizes (log2)
system.mem_ctrls0.writePktSize::5                   0                       # Write request sizes (log2)
system.mem_ctrls0.writePktSize::6              116169                       # Write request sizes (log2)
system.mem_ctrls0.rdQLenPdf::0                 119508                       # What read queue length does an incoming req see
system.mem_ctrls0.rdQLenPdf::1                  12248                       # What read queue length does an incoming req see
system.mem_ctrls0.rdQLenPdf::2                   1663                       # What read queue length does an incoming req see
system.mem_ctrls0.rdQLenPdf::3                    150                       # What read queue length does an incoming req see
system.mem_ctrls0.rdQLenPdf::4                      9                       # What read queue length does an incoming req see
system.mem_ctrls0.rdQLenPdf::5                      2                       # What read queue length does an incoming req see
system.mem_ctrls0.rdQLenPdf::6                      1                       # What read queue length does an incoming req see
system.mem_ctrls0.rdQLenPdf::7                      0                       # What read queue length does an incoming req see
system.mem_ctrls0.rdQLenPdf::8                      0                       # What read queue length does an incoming req see
system.mem_ctrls0.rdQLenPdf::9                      0                       # What read queue length does an incoming req see
system.mem_ctrls0.rdQLenPdf::10                     0                       # What read queue length does an incoming req see
system.mem_ctrls0.rdQLenPdf::11                     0                       # What read queue length does an incoming req see
system.mem_ctrls0.rdQLenPdf::12                     0                       # What read queue length does an incoming req see
system.mem_ctrls0.rdQLenPdf::13                     0                       # What read queue length does an incoming req see
system.mem_ctrls0.rdQLenPdf::14                     0                       # What read queue length does an incoming req see
system.mem_ctrls0.rdQLenPdf::15                     0                       # What read queue length does an incoming req see
system.mem_ctrls0.rdQLenPdf::16                     0                       # What read queue length does an incoming req see
system.mem_ctrls0.rdQLenPdf::17                     0                       # What read queue length does an incoming req see
system.mem_ctrls0.rdQLenPdf::18                     0                       # What read queue length does an incoming req see
system.mem_ctrls0.rdQLenPdf::19                     0                       # What read queue length does an incoming req see
system.mem_ctrls0.rdQLenPdf::20                     0                       # What read queue length does an incoming req see
system.mem_ctrls0.rdQLenPdf::21                     0                       # What read queue length does an incoming req see
system.mem_ctrls0.rdQLenPdf::22                     0                       # What read queue length does an incoming req see
system.mem_ctrls0.rdQLenPdf::23                     0                       # What read queue length does an incoming req see
system.mem_ctrls0.rdQLenPdf::24                     0                       # What read queue length does an incoming req see
system.mem_ctrls0.rdQLenPdf::25                     0                       # What read queue length does an incoming req see
system.mem_ctrls0.rdQLenPdf::26                     0                       # What read queue length does an incoming req see
system.mem_ctrls0.rdQLenPdf::27                     0                       # What read queue length does an incoming req see
system.mem_ctrls0.rdQLenPdf::28                     0                       # What read queue length does an incoming req see
system.mem_ctrls0.rdQLenPdf::29                     0                       # What read queue length does an incoming req see
system.mem_ctrls0.rdQLenPdf::30                     0                       # What read queue length does an incoming req see
system.mem_ctrls0.rdQLenPdf::31                     0                       # What read queue length does an incoming req see
system.mem_ctrls0.rdQLenPdf::32                     0                       # What read queue length does an incoming req see
system.mem_ctrls0.rdQLenPdf::33                     0                       # What read queue length does an incoming req see
system.mem_ctrls0.rdQLenPdf::34                     0                       # What read queue length does an incoming req see
system.mem_ctrls0.rdQLenPdf::35                     0                       # What read queue length does an incoming req see
system.mem_ctrls0.rdQLenPdf::36                     0                       # What read queue length does an incoming req see
system.mem_ctrls0.rdQLenPdf::37                     0                       # What read queue length does an incoming req see
system.mem_ctrls0.rdQLenPdf::38                     0                       # What read queue length does an incoming req see
system.mem_ctrls0.rdQLenPdf::39                     0                       # What read queue length does an incoming req see
system.mem_ctrls0.rdQLenPdf::40                     0                       # What read queue length does an incoming req see
system.mem_ctrls0.rdQLenPdf::41                     0                       # What read queue length does an incoming req see
system.mem_ctrls0.rdQLenPdf::42                     0                       # What read queue length does an incoming req see
system.mem_ctrls0.rdQLenPdf::43                     0                       # What read queue length does an incoming req see
system.mem_ctrls0.rdQLenPdf::44                     0                       # What read queue length does an incoming req see
system.mem_ctrls0.rdQLenPdf::45                     0                       # What read queue length does an incoming req see
system.mem_ctrls0.rdQLenPdf::46                     0                       # What read queue length does an incoming req see
system.mem_ctrls0.rdQLenPdf::47                     0                       # What read queue length does an incoming req see
system.mem_ctrls0.rdQLenPdf::48                     0                       # What read queue length does an incoming req see
system.mem_ctrls0.rdQLenPdf::49                     0                       # What read queue length does an incoming req see
system.mem_ctrls0.rdQLenPdf::50                     0                       # What read queue length does an incoming req see
system.mem_ctrls0.rdQLenPdf::51                     0                       # What read queue length does an incoming req see
system.mem_ctrls0.rdQLenPdf::52                     0                       # What read queue length does an incoming req see
system.mem_ctrls0.rdQLenPdf::53                     0                       # What read queue length does an incoming req see
system.mem_ctrls0.rdQLenPdf::54                     0                       # What read queue length does an incoming req see
system.mem_ctrls0.rdQLenPdf::55                     0                       # What read queue length does an incoming req see
system.mem_ctrls0.rdQLenPdf::56                     0                       # What read queue length does an incoming req see
system.mem_ctrls0.rdQLenPdf::57                     0                       # What read queue length does an incoming req see
system.mem_ctrls0.rdQLenPdf::58                     0                       # What read queue length does an incoming req see
system.mem_ctrls0.rdQLenPdf::59                     0                       # What read queue length does an incoming req see
system.mem_ctrls0.rdQLenPdf::60                     0                       # What read queue length does an incoming req see
system.mem_ctrls0.rdQLenPdf::61                     0                       # What read queue length does an incoming req see
system.mem_ctrls0.rdQLenPdf::62                     0                       # What read queue length does an incoming req see
system.mem_ctrls0.rdQLenPdf::63                     0                       # What read queue length does an incoming req see
system.mem_ctrls0.wrQLenPdf::0                      1                       # What write queue length does an incoming req see
system.mem_ctrls0.wrQLenPdf::1                      1                       # What write queue length does an incoming req see
system.mem_ctrls0.wrQLenPdf::2                      1                       # What write queue length does an incoming req see
system.mem_ctrls0.wrQLenPdf::3                      1                       # What write queue length does an incoming req see
system.mem_ctrls0.wrQLenPdf::4                      1                       # What write queue length does an incoming req see
system.mem_ctrls0.wrQLenPdf::5                      1                       # What write queue length does an incoming req see
system.mem_ctrls0.wrQLenPdf::6                      1                       # What write queue length does an incoming req see
system.mem_ctrls0.wrQLenPdf::7                      1                       # What write queue length does an incoming req see
system.mem_ctrls0.wrQLenPdf::8                      1                       # What write queue length does an incoming req see
system.mem_ctrls0.wrQLenPdf::9                      1                       # What write queue length does an incoming req see
system.mem_ctrls0.wrQLenPdf::10                     1                       # What write queue length does an incoming req see
system.mem_ctrls0.wrQLenPdf::11                     1                       # What write queue length does an incoming req see
system.mem_ctrls0.wrQLenPdf::12                     1                       # What write queue length does an incoming req see
system.mem_ctrls0.wrQLenPdf::13                     1                       # What write queue length does an incoming req see
system.mem_ctrls0.wrQLenPdf::14                     1                       # What write queue length does an incoming req see
system.mem_ctrls0.wrQLenPdf::15                     1                       # What write queue length does an incoming req see
system.mem_ctrls0.wrQLenPdf::16                     1                       # What write queue length does an incoming req see
system.mem_ctrls0.wrQLenPdf::17                     1                       # What write queue length does an incoming req see
system.mem_ctrls0.wrQLenPdf::18                     1                       # What write queue length does an incoming req see
system.mem_ctrls0.wrQLenPdf::19                     1                       # What write queue length does an incoming req see
system.mem_ctrls0.wrQLenPdf::20                     1                       # What write queue length does an incoming req see
system.mem_ctrls0.wrQLenPdf::21                     1                       # What write queue length does an incoming req see
system.mem_ctrls0.wrQLenPdf::22                     1                       # What write queue length does an incoming req see
system.mem_ctrls0.wrQLenPdf::23                     1                       # What write queue length does an incoming req see
system.mem_ctrls0.wrQLenPdf::24                     1                       # What write queue length does an incoming req see
system.mem_ctrls0.wrQLenPdf::25                     1                       # What write queue length does an incoming req see
system.mem_ctrls0.wrQLenPdf::26                     1                       # What write queue length does an incoming req see
system.mem_ctrls0.wrQLenPdf::27                     1                       # What write queue length does an incoming req see
system.mem_ctrls0.wrQLenPdf::28                     1                       # What write queue length does an incoming req see
system.mem_ctrls0.wrQLenPdf::29                     1                       # What write queue length does an incoming req see
system.mem_ctrls0.wrQLenPdf::30                     1                       # What write queue length does an incoming req see
system.mem_ctrls0.wrQLenPdf::31                     1                       # What write queue length does an incoming req see
system.mem_ctrls0.wrQLenPdf::32                     1                       # What write queue length does an incoming req see
system.mem_ctrls0.wrQLenPdf::33                     1                       # What write queue length does an incoming req see
system.mem_ctrls0.wrQLenPdf::34                     1                       # What write queue length does an incoming req see
system.mem_ctrls0.wrQLenPdf::35                     1                       # What write queue length does an incoming req see
system.mem_ctrls0.wrQLenPdf::36                     1                       # What write queue length does an incoming req see
system.mem_ctrls0.wrQLenPdf::37                     1                       # What write queue length does an incoming req see
system.mem_ctrls0.wrQLenPdf::38                     1                       # What write queue length does an incoming req see
system.mem_ctrls0.wrQLenPdf::39                     1                       # What write queue length does an incoming req see
system.mem_ctrls0.wrQLenPdf::40                     1                       # What write queue length does an incoming req see
system.mem_ctrls0.wrQLenPdf::41                     1                       # What write queue length does an incoming req see
system.mem_ctrls0.wrQLenPdf::42                     1                       # What write queue length does an incoming req see
system.mem_ctrls0.wrQLenPdf::43                     1                       # What write queue length does an incoming req see
system.mem_ctrls0.wrQLenPdf::44                     1                       # What write queue length does an incoming req see
system.mem_ctrls0.wrQLenPdf::45                     1                       # What write queue length does an incoming req see
system.mem_ctrls0.wrQLenPdf::46                     1                       # What write queue length does an incoming req see
system.mem_ctrls0.wrQLenPdf::47                  5248                       # What write queue length does an incoming req see
system.mem_ctrls0.wrQLenPdf::48                  5306                       # What write queue length does an incoming req see
system.mem_ctrls0.wrQLenPdf::49                  6476                       # What write queue length does an incoming req see
system.mem_ctrls0.wrQLenPdf::50                  6594                       # What write queue length does an incoming req see
system.mem_ctrls0.wrQLenPdf::51                  6607                       # What write queue length does an incoming req see
system.mem_ctrls0.wrQLenPdf::52                  6602                       # What write queue length does an incoming req see
system.mem_ctrls0.wrQLenPdf::53                  6606                       # What write queue length does an incoming req see
system.mem_ctrls0.wrQLenPdf::54                  6595                       # What write queue length does an incoming req see
system.mem_ctrls0.wrQLenPdf::55                  6593                       # What write queue length does an incoming req see
system.mem_ctrls0.wrQLenPdf::56                  6581                       # What write queue length does an incoming req see
system.mem_ctrls0.wrQLenPdf::57                  6583                       # What write queue length does an incoming req see
system.mem_ctrls0.wrQLenPdf::58                  6587                       # What write queue length does an incoming req see
system.mem_ctrls0.wrQLenPdf::59                  6610                       # What write queue length does an incoming req see
system.mem_ctrls0.wrQLenPdf::60                  6664                       # What write queue length does an incoming req see
system.mem_ctrls0.wrQLenPdf::61                  6796                       # What write queue length does an incoming req see
system.mem_ctrls0.wrQLenPdf::62                  6553                       # What write queue length does an incoming req see
system.mem_ctrls0.wrQLenPdf::63                  6556                       # What write queue length does an incoming req see
system.mem_ctrls0.wrQLenPdf::64                  6556                       # What write queue length does an incoming req see
system.mem_ctrls0.wrQLenPdf::65                     8                       # What write queue length does an incoming req see
system.mem_ctrls0.wrQLenPdf::66                     1                       # What write queue length does an incoming req see
system.mem_ctrls0.wrQLenPdf::67                     0                       # What write queue length does an incoming req see
system.mem_ctrls0.wrQLenPdf::68                     0                       # What write queue length does an incoming req see
system.mem_ctrls0.wrQLenPdf::69                     0                       # What write queue length does an incoming req see
system.mem_ctrls0.wrQLenPdf::70                     0                       # What write queue length does an incoming req see
system.mem_ctrls0.wrQLenPdf::71                     0                       # What write queue length does an incoming req see
system.mem_ctrls0.wrQLenPdf::72                     0                       # What write queue length does an incoming req see
system.mem_ctrls0.wrQLenPdf::73                     0                       # What write queue length does an incoming req see
system.mem_ctrls0.wrQLenPdf::74                     0                       # What write queue length does an incoming req see
system.mem_ctrls0.wrQLenPdf::75                     0                       # What write queue length does an incoming req see
system.mem_ctrls0.wrQLenPdf::76                     0                       # What write queue length does an incoming req see
system.mem_ctrls0.wrQLenPdf::77                     0                       # What write queue length does an incoming req see
system.mem_ctrls0.wrQLenPdf::78                     0                       # What write queue length does an incoming req see
system.mem_ctrls0.wrQLenPdf::79                     0                       # What write queue length does an incoming req see
system.mem_ctrls0.wrQLenPdf::80                     0                       # What write queue length does an incoming req see
system.mem_ctrls0.wrQLenPdf::81                     0                       # What write queue length does an incoming req see
system.mem_ctrls0.wrQLenPdf::82                     0                       # What write queue length does an incoming req see
system.mem_ctrls0.wrQLenPdf::83                     0                       # What write queue length does an incoming req see
system.mem_ctrls0.wrQLenPdf::84                     0                       # What write queue length does an incoming req see
system.mem_ctrls0.wrQLenPdf::85                     0                       # What write queue length does an incoming req see
system.mem_ctrls0.wrQLenPdf::86                     0                       # What write queue length does an incoming req see
system.mem_ctrls0.wrQLenPdf::87                     0                       # What write queue length does an incoming req see
system.mem_ctrls0.wrQLenPdf::88                     0                       # What write queue length does an incoming req see
system.mem_ctrls0.wrQLenPdf::89                     0                       # What write queue length does an incoming req see
system.mem_ctrls0.wrQLenPdf::90                     0                       # What write queue length does an incoming req see
system.mem_ctrls0.wrQLenPdf::91                     0                       # What write queue length does an incoming req see
system.mem_ctrls0.wrQLenPdf::92                     0                       # What write queue length does an incoming req see
system.mem_ctrls0.wrQLenPdf::93                     0                       # What write queue length does an incoming req see
system.mem_ctrls0.wrQLenPdf::94                     0                       # What write queue length does an incoming req see
system.mem_ctrls0.wrQLenPdf::95                     0                       # What write queue length does an incoming req see
system.mem_ctrls0.wrQLenPdf::96                     0                       # What write queue length does an incoming req see
system.mem_ctrls0.wrQLenPdf::97                     0                       # What write queue length does an incoming req see
system.mem_ctrls0.wrQLenPdf::98                     0                       # What write queue length does an incoming req see
system.mem_ctrls0.wrQLenPdf::99                     0                       # What write queue length does an incoming req see
system.mem_ctrls0.wrQLenPdf::100                    0                       # What write queue length does an incoming req see
system.mem_ctrls0.wrQLenPdf::101                    0                       # What write queue length does an incoming req see
system.mem_ctrls0.wrQLenPdf::102                    0                       # What write queue length does an incoming req see
system.mem_ctrls0.wrQLenPdf::103                    0                       # What write queue length does an incoming req see
system.mem_ctrls0.wrQLenPdf::104                    0                       # What write queue length does an incoming req see
system.mem_ctrls0.wrQLenPdf::105                    0                       # What write queue length does an incoming req see
system.mem_ctrls0.wrQLenPdf::106                    0                       # What write queue length does an incoming req see
system.mem_ctrls0.wrQLenPdf::107                    0                       # What write queue length does an incoming req see
system.mem_ctrls0.wrQLenPdf::108                    0                       # What write queue length does an incoming req see
system.mem_ctrls0.wrQLenPdf::109                    0                       # What write queue length does an incoming req see
system.mem_ctrls0.wrQLenPdf::110                    0                       # What write queue length does an incoming req see
system.mem_ctrls0.wrQLenPdf::111                    0                       # What write queue length does an incoming req see
system.mem_ctrls0.wrQLenPdf::112                    0                       # What write queue length does an incoming req see
system.mem_ctrls0.wrQLenPdf::113                    0                       # What write queue length does an incoming req see
system.mem_ctrls0.wrQLenPdf::114                    0                       # What write queue length does an incoming req see
system.mem_ctrls0.wrQLenPdf::115                    0                       # What write queue length does an incoming req see
system.mem_ctrls0.wrQLenPdf::116                    0                       # What write queue length does an incoming req see
system.mem_ctrls0.wrQLenPdf::117                    0                       # What write queue length does an incoming req see
system.mem_ctrls0.wrQLenPdf::118                    0                       # What write queue length does an incoming req see
system.mem_ctrls0.wrQLenPdf::119                    0                       # What write queue length does an incoming req see
system.mem_ctrls0.wrQLenPdf::120                    0                       # What write queue length does an incoming req see
system.mem_ctrls0.wrQLenPdf::121                    0                       # What write queue length does an incoming req see
system.mem_ctrls0.wrQLenPdf::122                    0                       # What write queue length does an incoming req see
system.mem_ctrls0.wrQLenPdf::123                    0                       # What write queue length does an incoming req see
system.mem_ctrls0.wrQLenPdf::124                    0                       # What write queue length does an incoming req see
system.mem_ctrls0.wrQLenPdf::125                    0                       # What write queue length does an incoming req see
system.mem_ctrls0.wrQLenPdf::126                    0                       # What write queue length does an incoming req see
system.mem_ctrls0.wrQLenPdf::127                    0                       # What write queue length does an incoming req see
system.mem_ctrls0.bytesPerActivate::samples       175060                       # Bytes accessed per row activation
system.mem_ctrls0.bytesPerActivate::mean    91.284634                       # Bytes accessed per row activation
system.mem_ctrls0.bytesPerActivate::gmean    79.196323                       # Bytes accessed per row activation
system.mem_ctrls0.bytesPerActivate::stdev    71.521952                       # Bytes accessed per row activation
system.mem_ctrls0.bytesPerActivate::0-127       137087     78.31%     78.31% # Bytes accessed per row activation
system.mem_ctrls0.bytesPerActivate::128-255        28696     16.39%     94.70% # Bytes accessed per row activation
system.mem_ctrls0.bytesPerActivate::256-383         6148      3.51%     98.21% # Bytes accessed per row activation
system.mem_ctrls0.bytesPerActivate::384-511         1964      1.12%     99.33% # Bytes accessed per row activation
system.mem_ctrls0.bytesPerActivate::512-639          973      0.56%     99.89% # Bytes accessed per row activation
system.mem_ctrls0.bytesPerActivate::640-767          114      0.07%     99.96% # Bytes accessed per row activation
system.mem_ctrls0.bytesPerActivate::768-895           30      0.02%     99.97% # Bytes accessed per row activation
system.mem_ctrls0.bytesPerActivate::896-1023           20      0.01%     99.98% # Bytes accessed per row activation
system.mem_ctrls0.bytesPerActivate::1024-1151           28      0.02%    100.00% # Bytes accessed per row activation
system.mem_ctrls0.bytesPerActivate::total       175060                       # Bytes accessed per row activation
system.mem_ctrls0.rdPerTurnAround::samples         6553                       # Reads before turning the bus around for writes
system.mem_ctrls0.rdPerTurnAround::mean     20.383488                       # Reads before turning the bus around for writes
system.mem_ctrls0.rdPerTurnAround::gmean    17.499677                       # Reads before turning the bus around for writes
system.mem_ctrls0.rdPerTurnAround::stdev   166.179644                       # Reads before turning the bus around for writes
system.mem_ctrls0.rdPerTurnAround::0-255         6549     99.94%     99.94% # Reads before turning the bus around for writes
system.mem_ctrls0.rdPerTurnAround::256-511            3      0.05%     99.98% # Reads before turning the bus around for writes
system.mem_ctrls0.rdPerTurnAround::13312-13567            1      0.02%    100.00% # Reads before turning the bus around for writes
system.mem_ctrls0.rdPerTurnAround::total         6553                       # Reads before turning the bus around for writes
system.mem_ctrls0.wrPerTurnAround::samples         6553                       # Writes before turning the bus around for reads
system.mem_ctrls0.wrPerTurnAround::mean     17.719213                       # Writes before turning the bus around for reads
system.mem_ctrls0.wrPerTurnAround::gmean    17.694419                       # Writes before turning the bus around for reads
system.mem_ctrls0.wrPerTurnAround::stdev     0.923125                       # Writes before turning the bus around for reads
system.mem_ctrls0.wrPerTurnAround::16            1288     19.66%     19.66% # Writes before turning the bus around for reads
system.mem_ctrls0.wrPerTurnAround::17               8      0.12%     19.78% # Writes before turning the bus around for reads
system.mem_ctrls0.wrPerTurnAround::18            4598     70.17%     89.94% # Writes before turning the bus around for reads
system.mem_ctrls0.wrPerTurnAround::19             585      8.93%     98.87% # Writes before turning the bus around for reads
system.mem_ctrls0.wrPerTurnAround::20              65      0.99%     99.86% # Writes before turning the bus around for reads
system.mem_ctrls0.wrPerTurnAround::21               7      0.11%     99.97% # Writes before turning the bus around for reads
system.mem_ctrls0.wrPerTurnAround::22               2      0.03%    100.00% # Writes before turning the bus around for reads
system.mem_ctrls0.wrPerTurnAround::total         6553                       # Writes before turning the bus around for reads
system.mem_ctrls0.masterReadBytes::.cpu.inst        23488                       # Per-master bytes read from memory
system.mem_ctrls0.masterReadBytes::.cpu.data      8437056                       # Per-master bytes read from memory
system.mem_ctrls0.masterReadBytes::.l2.prefetcher        88640                       # Per-master bytes read from memory
system.mem_ctrls0.masterWriteBytes::.writebacks      7431296                       # Per-master bytes write to memory
system.mem_ctrls0.masterReadRate::.cpu.inst 234880.000000000000                       # Per-master bytes read from memory rate (Bytes/sec)
system.mem_ctrls0.masterReadRate::.cpu.data 84370560.000000000000                       # Per-master bytes read from memory rate (Bytes/sec)
system.mem_ctrls0.masterReadRate::.l2.prefetcher 886400.000000000000                       # Per-master bytes read from memory rate (Bytes/sec)
system.mem_ctrls0.masterWriteRate::.writebacks 74312960.000000000000                       # Per-master bytes write to memory rate (Bytes/sec)
system.mem_ctrls0.masterReadAccesses::.cpu.inst          367                       # Per-master read serviced memory accesses
system.mem_ctrls0.masterReadAccesses::.cpu.data       131853                       # Per-master read serviced memory accesses
system.mem_ctrls0.masterReadAccesses::.l2.prefetcher         1385                       # Per-master read serviced memory accesses
system.mem_ctrls0.masterWriteAccesses::.writebacks       116169                       # Per-master write serviced memory accesses
system.mem_ctrls0.masterReadTotalLat::.cpu.inst     13139315                       # Per-master read total memory access latency
system.mem_ctrls0.masterReadTotalLat::.cpu.data   6060050456                       # Per-master read total memory access latency
system.mem_ctrls0.masterReadTotalLat::.l2.prefetcher     55009761                       # Per-master read total memory access latency
system.mem_ctrls0.masterWriteTotalLat::.writebacks 5285324391799                       # Per-master write total memory access latency
system.mem_ctrls0.masterReadAvgLat::.cpu.inst     35801.95                       # Per-master read average memory access latency
system.mem_ctrls0.masterReadAvgLat::.cpu.data     45960.66                       # Per-master read average memory access latency
system.mem_ctrls0.masterReadAvgLat::.l2.prefetcher     39718.24                       # Per-master read average memory access latency
system.mem_ctrls0.masterWriteAvgLat::.writebacks  45496857.09                       # Per-master write average memory access latency
system.mem_ctrls0.totQLat                  3791600680                       # Total ticks spent queuing
system.mem_ctrls0.totMemAccLat             6128199532                       # Total ticks spent from burst creation until serviced by the DRAM
system.mem_ctrls0.totBusLat                 445091892                       # Total ticks spent in databus transfers
system.mem_ctrls0.avgQLat                    28384.28                       # Average queueing delay per DRAM burst
system.mem_ctrls0.avgBusLat                   3332.00                       # Average bus latency per DRAM burst
system.mem_ctrls0.avgMemAccLat               45876.28                       # Average memory access latency per DRAM burst
system.mem_ctrls0.avgRdBW                       85.49                       # Average DRAM read bandwidth in MiByte/s
system.mem_ctrls0.avgWrBW                       74.31                       # Average achieved write bandwidth in MiByte/s
system.mem_ctrls0.avgRdBWSys                    85.51                       # Average system read bandwidth in MiByte/s
system.mem_ctrls0.avgWrBWSys                    74.35                       # Average system write bandwidth in MiByte/s
system.mem_ctrls0.peakBW                     19207.00                       # Theoretical peak bandwidth in MiByte/s
system.mem_ctrls0.busUtil                        0.83                       # Data bus utilization in percentage
system.mem_ctrls0.busUtilRead                    0.45                       # Data bus utilization in percentage for reads
system.mem_ctrls0.busUtilWrite                   0.39                       # Data bus utilization in percentage for writes
system.mem_ctrls0.avgRdQLen                      1.12                       # Average read queue length when enqueuing
system.mem_ctrls0.avgWrQLen                     53.82                       # Average write queue length when enqueuing
system.mem_ctrls0.readRowHits                   22434                       # Number of row buffer hits during reads
system.mem_ctrls0.writeRowHits                  52198                       # Number of row buffer hits during writes
system.mem_ctrls0.readRowHitRate                16.79                       # Row buffer hit rate for reads
system.mem_ctrls0.writeRowHitRate               44.93                       # Row buffer hit rate for writes
system.mem_ctrls0.avgGap                    400358.13                       # Average gap between requests
system.mem_ctrls0.pageHitRate                   29.88                       # Row buffer hit rate, read and write combined
system.mem_ctrls0_0.actEnergy            273065450.112024                       # Energy for activate commands per rank (pJ)
system.mem_ctrls0_0.preEnergy            363028722.403185                       # Energy for precharge commands per rank (pJ)
system.mem_ctrls0_0.readEnergy           281617116.076755                       # Energy for read commands per rank (pJ)
system.mem_ctrls0_0.writeEnergy          218372376.096004                       # Energy for write commands per rank (pJ)
system.mem_ctrls0_0.refreshEnergy        17754999670.191029                       # Energy for refresh commands per rank (pJ)
system.mem_ctrls0_0.actBackEnergy        10530792013.593401                       # Energy for active background per rank (pJ)
system.mem_ctrls0_0.preBackEnergy        322081227.955211                       # Energy for precharge background per rank (pJ)
system.mem_ctrls0_0.actPowerDownEnergy   42305118669.004761                       # Energy for active power-down per rank (pJ)
system.mem_ctrls0_0.prePowerDownEnergy   8684879458.080126                       # Energy for precharge power-down per rank (pJ)
system.mem_ctrls0_0.selfRefreshEnergy    285105776.054400                       # Energy for self refresh per rank (pJ)
system.mem_ctrls0_0.totalEnergy          81026111326.103867                       # Total energy per rank (pJ)
system.mem_ctrls0_0.averagePower           810.261113                       # Core power per rank (mW)
system.mem_ctrls0_0.totalIdleTime         87099169169                       # Total Idle time Per DRAM Rank
system.mem_ctrls0_0.memoryStateTime::IDLE    131836764                       # Time in different power states
system.mem_ctrls0_0.memoryStateTime::REF   4485600000                       # Time in different power states
system.mem_ctrls0_0.memoryStateTime::SREF    153699560                       # Time in different power states
system.mem_ctrls0_0.memoryStateTime::PRE_PDN  18093517650                       # Time in different power states
system.mem_ctrls0_0.memoryStateTime::ACT   8279303551                       # Time in different power states
system.mem_ctrls0_0.memoryStateTime::ACT_PDN  68856042475                       # Time in different power states
system.mem_ctrls0_1.actEnergy            272912631.264026                       # Energy for activate commands per rank (pJ)
system.mem_ctrls0_1.preEnergy            362829698.044785                       # Energy for precharge commands per rank (pJ)
system.mem_ctrls0_1.readEnergy           280266888.383958                       # Energy for read commands per rank (pJ)
system.mem_ctrls0_1.writeEnergy          218041628.448004                       # Energy for write commands per rank (pJ)
system.mem_ctrls0_1.refreshEnergy        17761926558.327034                       # Energy for refresh commands per rank (pJ)
system.mem_ctrls0_1.actBackEnergy        10494193146.998138                       # Energy for active background per rank (pJ)
system.mem_ctrls0_1.preBackEnergy        318409065.408011                       # Energy for precharge background per rank (pJ)
system.mem_ctrls0_1.actPowerDownEnergy   42613101666.508514                       # Energy for active power-down per rank (pJ)
system.mem_ctrls0_1.prePowerDownEnergy   8481796723.680129                       # Energy for precharge power-down per rank (pJ)
system.mem_ctrls0_1.selfRefreshEnergy    243271544.443200                       # Energy for self refresh per rank (pJ)
system.mem_ctrls0_1.totalEnergy          81052468910.851318                       # Total energy per rank (pJ)
system.mem_ctrls0_1.averagePower           810.524689                       # Core power per rank (mW)
system.mem_ctrls0_1.totalIdleTime         87151653402                       # Total Idle time Per DRAM Rank
system.mem_ctrls0_1.memoryStateTime::IDLE    124817354                       # Time in different power states
system.mem_ctrls0_1.memoryStateTime::REF   4487350000                       # Time in different power states
system.mem_ctrls0_1.memoryStateTime::SREF    125808960                       # Time in different power states
system.mem_ctrls0_1.memoryStateTime::PRE_PDN  17670441441                       # Time in different power states
system.mem_ctrls0_1.memoryStateTime::ACT   8234233396                       # Time in different power states
system.mem_ctrls0_1.memoryStateTime::ACT_PDN  69357348849                       # Time in different power states
system.mem_ctrls1.pwrStateResidencyTicks::UNDEFINED 100000000000                       # Cumulative time (in ticks) in various power states
system.mem_ctrls1.bytes_read::.cpu.inst         22272                       # Number of bytes read from this memory
system.mem_ctrls1.bytes_read::.cpu.data       8424768                       # Number of bytes read from this memory
system.mem_ctrls1.bytes_read::.l2.prefetcher        88256                       # Number of bytes read from this memory
system.mem_ctrls1.bytes_read::total           8535296                       # Number of bytes read from this memory
system.mem_ctrls1.bytes_inst_read::.cpu.inst        22272                       # Number of instructions bytes read from this memory
system.mem_ctrls1.bytes_inst_read::total        22272                       # Number of instructions bytes read from this memory
system.mem_ctrls1.bytes_written::.writebacks      7433600                       # Number of bytes written to this memory
system.mem_ctrls1.bytes_written::total        7433600                       # Number of bytes written to this memory
system.mem_ctrls1.num_reads::.cpu.inst            348                       # Number of read requests responded to by this memory
system.mem_ctrls1.num_reads::.cpu.data         131637                       # Number of read requests responded to by this memory
system.mem_ctrls1.num_reads::.l2.prefetcher         1379                       # Number of read requests responded to by this memory
system.mem_ctrls1.num_reads::total             133364                       # Number of read requests responded to by this memory
system.mem_ctrls1.num_writes::.writebacks       116150                       # Number of write requests responded to by this memory
system.mem_ctrls1.num_writes::total            116150                       # Number of write requests responded to by this memory
system.mem_ctrls1.bw_read::.cpu.inst           222720                       # Total read bandwidth from this memory (bytes/s)
system.mem_ctrls1.bw_read::.cpu.data         84247680                       # Total read bandwidth from this memory (bytes/s)
system.mem_ctrls1.bw_read::.l2.prefetcher       882560                       # Total read bandwidth from this memory (bytes/s)
system.mem_ctrls1.bw_read::total             85352960                       # Total read bandwidth from this memory (bytes/s)
system.mem_ctrls1.bw_inst_read::.cpu.inst       222720                       # Instruction read bandwidth from this memory (bytes/s)
system.mem_ctrls1.bw_inst_read::total          222720                       # Instruction read bandwidth from this memory (bytes/s)
system.mem_ctrls1.bw_write::.writebacks      74336000                       # Write bandwidth from this memory (bytes/s)
system.mem_ctrls1.bw_write::total            74336000                       # Write bandwidth from this memory (bytes/s)
system.mem_ctrls1.bw_total::.writebacks      74336000                       # Total bandwidth to/from this memory (bytes/s)
system.mem_ctrls1.bw_total::.cpu.inst          222720                       # Total bandwidth to/from this memory (bytes/s)
system.mem_ctrls1.bw_total::.cpu.data        84247680                       # Total bandwidth to/from this memory (bytes/s)
system.mem_ctrls1.bw_total::.l2.prefetcher       882560                       # Total bandwidth to/from this memory (bytes/s)
system.mem_ctrls1.bw_total::total           159688960                       # Total bandwidth to/from this memory (bytes/s)
system.mem_ctrls1.avgPriority_.writebacks::samples    116150.00                       # Average QoS priority value for accepted requests
system.mem_ctrls1.avgPriority_.cpu.inst::samples       348.00                       # Average QoS priority value for accepted requests
system.mem_ctrls1.avgPriority_.cpu.data::samples    131620.00                       # Average QoS priority value for accepted requests
system.mem_ctrls1.avgPriority_.l2.prefetcher::samples      1379.00                       # Average QoS priority value for accepted requests
system.mem_ctrls1.priorityMinLatency     0.000000017492                       # per QoS priority minimum request to response latency (s)
system.mem_ctrls1.priorityMaxLatency     0.002039349652                       # per QoS priority maximum request to response latency (s)
system.mem_ctrls1.numReadWriteTurnArounds         6557                       # Number of turnarounds from READ to WRITE
system.mem_ctrls1.numWriteReadTurnArounds         6557                       # Number of turnarounds from WRITE to READ
system.mem_ctrls1.numStayReadState             403735                       # Number of times bus staying in READ state
system.mem_ctrls1.numStayWriteState            109567                       # Number of times bus staying in WRITE state
system.mem_ctrls1.readReqs                     133364                       # Number of read requests accepted
system.mem_ctrls1.writeReqs                    116150                       # Number of write requests accepted
system.mem_ctrls1.readBursts                   133364                       # Number of DRAM read bursts, including those serviced by the write queue
system.mem_ctrls1.writeBursts                  116150                       # Number of DRAM write bursts, including those merged in the write queue
system.mem_ctrls1.bytesReadDRAM               8534208                       # Total number of bytes read from DRAM
system.mem_ctrls1.bytesReadWrQ                   1088                       # Total number of bytes read from write queue
system.mem_ctrls1.bytesWritten                7429568                       # Total number of bytes written to DRAM
system.mem_ctrls1.bytesReadSys                8535296                       # Total read bytes from the system interface side
system.mem_ctrls1.bytesWrittenSys             7433600                       # Total written bytes from the system interface side
system.mem_ctrls1.servicedByWrQ                    17                       # Number of DRAM read bursts serviced by the write queue
system.mem_ctrls1.mergedWrBursts                    0                       # Number of DRAM write bursts merged with an existing one
system.mem_ctrls1.neitherReadNorWriteReqs            0                       # Number of requests that are neither read nor write
system.mem_ctrls1.perBankRdBursts::0             4310                       # Per bank write bursts
system.mem_ctrls1.perBankRdBursts::1             4286                       # Per bank write bursts
system.mem_ctrls1.perBankRdBursts::2             4255                       # Per bank write bursts
system.mem_ctrls1.perBankRdBursts::3             4242                       # Per bank write bursts
system.mem_ctrls1.perBankRdBursts::4             4228                       # Per bank write bursts
system.mem_ctrls1.perBankRdBursts::5             4129                       # Per bank write bursts
system.mem_ctrls1.perBankRdBursts::6             4078                       # Per bank write bursts
system.mem_ctrls1.perBankRdBursts::7             4035                       # Per bank write bursts
system.mem_ctrls1.perBankRdBursts::8             4097                       # Per bank write bursts
system.mem_ctrls1.perBankRdBursts::9             4038                       # Per bank write bursts
system.mem_ctrls1.perBankRdBursts::10            4050                       # Per bank write bursts
system.mem_ctrls1.perBankRdBursts::11            4140                       # Per bank write bursts
system.mem_ctrls1.perBankRdBursts::12            4186                       # Per bank write bursts
system.mem_ctrls1.perBankRdBursts::13            4170                       # Per bank write bursts
system.mem_ctrls1.perBankRdBursts::14            4239                       # Per bank write bursts
system.mem_ctrls1.perBankRdBursts::15            4331                       # Per bank write bursts
system.mem_ctrls1.perBankRdBursts::16            4331                       # Per bank write bursts
system.mem_ctrls1.perBankRdBursts::17            4391                       # Per bank write bursts
system.mem_ctrls1.perBankRdBursts::18            4339                       # Per bank write bursts
system.mem_ctrls1.perBankRdBursts::19            4311                       # Per bank write bursts
system.mem_ctrls1.perBankRdBursts::20            4210                       # Per bank write bursts
system.mem_ctrls1.perBankRdBursts::21            4172                       # Per bank write bursts
system.mem_ctrls1.perBankRdBursts::22            4105                       # Per bank write bursts
system.mem_ctrls1.perBankRdBursts::23            4096                       # Per bank write bursts
system.mem_ctrls1.perBankRdBursts::24            4033                       # Per bank write bursts
system.mem_ctrls1.perBankRdBursts::25            4037                       # Per bank write bursts
system.mem_ctrls1.perBankRdBursts::26            4007                       # Per bank write bursts
system.mem_ctrls1.perBankRdBursts::27            3980                       # Per bank write bursts
system.mem_ctrls1.perBankRdBursts::28            4004                       # Per bank write bursts
system.mem_ctrls1.perBankRdBursts::29            4153                       # Per bank write bursts
system.mem_ctrls1.perBankRdBursts::30            4146                       # Per bank write bursts
system.mem_ctrls1.perBankRdBursts::31            4218                       # Per bank write bursts
system.mem_ctrls1.perBankWrBursts::0             3768                       # Per bank write bursts
system.mem_ctrls1.perBankWrBursts::1             3767                       # Per bank write bursts
system.mem_ctrls1.perBankWrBursts::2             3722                       # Per bank write bursts
system.mem_ctrls1.perBankWrBursts::3             3660                       # Per bank write bursts
system.mem_ctrls1.perBankWrBursts::4             3665                       # Per bank write bursts
system.mem_ctrls1.perBankWrBursts::5             3563                       # Per bank write bursts
system.mem_ctrls1.perBankWrBursts::6             3541                       # Per bank write bursts
system.mem_ctrls1.perBankWrBursts::7             3471                       # Per bank write bursts
system.mem_ctrls1.perBankWrBursts::8             3541                       # Per bank write bursts
system.mem_ctrls1.perBankWrBursts::9             3531                       # Per bank write bursts
system.mem_ctrls1.perBankWrBursts::10            3538                       # Per bank write bursts
system.mem_ctrls1.perBankWrBursts::11            3610                       # Per bank write bursts
system.mem_ctrls1.perBankWrBursts::12            3633                       # Per bank write bursts
system.mem_ctrls1.perBankWrBursts::13            3661                       # Per bank write bursts
system.mem_ctrls1.perBankWrBursts::14            3718                       # Per bank write bursts
system.mem_ctrls1.perBankWrBursts::15            3736                       # Per bank write bursts
system.mem_ctrls1.perBankWrBursts::16            3792                       # Per bank write bursts
system.mem_ctrls1.perBankWrBursts::17            3846                       # Per bank write bursts
system.mem_ctrls1.perBankWrBursts::18            3799                       # Per bank write bursts
system.mem_ctrls1.perBankWrBursts::19            3759                       # Per bank write bursts
system.mem_ctrls1.perBankWrBursts::20            3691                       # Per bank write bursts
system.mem_ctrls1.perBankWrBursts::21            3644                       # Per bank write bursts
system.mem_ctrls1.perBankWrBursts::22            3551                       # Per bank write bursts
system.mem_ctrls1.perBankWrBursts::23            3554                       # Per bank write bursts
system.mem_ctrls1.perBankWrBursts::24            3531                       # Per bank write bursts
system.mem_ctrls1.perBankWrBursts::25            3482                       # Per bank write bursts
system.mem_ctrls1.perBankWrBursts::26            3464                       # Per bank write bursts
system.mem_ctrls1.perBankWrBursts::27            3437                       # Per bank write bursts
system.mem_ctrls1.perBankWrBursts::28            3494                       # Per bank write bursts
system.mem_ctrls1.perBankWrBursts::29            3577                       # Per bank write bursts
system.mem_ctrls1.perBankWrBursts::30            3619                       # Per bank write bursts
system.mem_ctrls1.perBankWrBursts::31            3722                       # Per bank write bursts
system.mem_ctrls1.numRdRetry                        0                       # Number of times read queue was full causing retry
system.mem_ctrls1.numWrRetry                        0                       # Number of times write queue was full causing retry
system.mem_ctrls1.totGap                  99998629500                       # Total gap between requests
system.mem_ctrls1.readPktSize::0                    0                       # Read request sizes (log2)
system.mem_ctrls1.readPktSize::1                    0                       # Read request sizes (log2)
system.mem_ctrls1.readPktSize::2                    0                       # Read request sizes (log2)
system.mem_ctrls1.readPktSize::3                    0                       # Read request sizes (log2)
system.mem_ctrls1.readPktSize::4                    0                       # Read request sizes (log2)
system.mem_ctrls1.readPktSize::5                    0                       # Read request sizes (log2)
system.mem_ctrls1.readPktSize::6               133364                       # Read request sizes (log2)
system.mem_ctrls1.writePktSize::0                   0                       # Write request sizes (log2)
system.mem_ctrls1.writePktSize::1                   0                       # Write request sizes (log2)
system.mem_ctrls1.writePktSize::2                   0                       # Write request sizes (log2)
system.mem_ctrls1.writePktSize::3                   0                       # Write request sizes (log2)
system.mem_ctrls1.writePktSize::4                   0                       # Write request sizes (log2)
system.mem_ctrls1.writePktSize::5                   0                       # Write request sizes (log2)
system.mem_ctrls1.writePktSize::6              116150                       # Write request sizes (log2)
system.mem_ctrls1.rdQLenPdf::0                 119401                       # What read queue length does an incoming req see
system.mem_ctrls1.rdQLenPdf::1                  12086                       # What read queue length does an incoming req see
system.mem_ctrls1.rdQLenPdf::2                   1691                       # What read queue length does an incoming req see
system.mem_ctrls1.rdQLenPdf::3                    154                       # What read queue length does an incoming req see
system.mem_ctrls1.rdQLenPdf::4                     10                       # What read queue length does an incoming req see
system.mem_ctrls1.rdQLenPdf::5                      3                       # What read queue length does an incoming req see
system.mem_ctrls1.rdQLenPdf::6                      2                       # What read queue length does an incoming req see
system.mem_ctrls1.rdQLenPdf::7                      0                       # What read queue length does an incoming req see
system.mem_ctrls1.rdQLenPdf::8                      0                       # What read queue length does an incoming req see
system.mem_ctrls1.rdQLenPdf::9                      0                       # What read queue length does an incoming req see
system.mem_ctrls1.rdQLenPdf::10                     0                       # What read queue length does an incoming req see
system.mem_ctrls1.rdQLenPdf::11                     0                       # What read queue length does an incoming req see
system.mem_ctrls1.rdQLenPdf::12                     0                       # What read queue length does an incoming req see
system.mem_ctrls1.rdQLenPdf::13                     0                       # What read queue length does an incoming req see
system.mem_ctrls1.rdQLenPdf::14                     0                       # What read queue length does an incoming req see
system.mem_ctrls1.rdQLenPdf::15                     0                       # What read queue length does an incoming req see
system.mem_ctrls1.rdQLenPdf::16                     0                       # What read queue length does an incoming req see
system.mem_ctrls1.rdQLenPdf::17                     0                       # What read queue length does an incoming req see
system.mem_ctrls1.rdQLenPdf::18                     0                       # What read queue length does an incoming req see
system.mem_ctrls1.rdQLenPdf::19                     0                       # What read queue length does an incoming req see
system.mem_ctrls1.rdQLenPdf::20                     0                       # What read queue length does an incoming req see
system.mem_ctrls1.rdQLenPdf::21                     0                       # What read queue length does an incoming req see
system.mem_ctrls1.rdQLenPdf::22                     0                       # What read queue length does an incoming req see
system.mem_ctrls1.rdQLenPdf::23                     0                       # What read queue length does an incoming req see
system.mem_ctrls1.rdQLenPdf::24                     0                       # What read queue length does an incoming req see
system.mem_ctrls1.rdQLenPdf::25                     0                       # What read queue length does an incoming req see
system.mem_ctrls1.rdQLenPdf::26                     0                       # What read queue length does an incoming req see
system.mem_ctrls1.rdQLenPdf::27                     0                       # What read queue length does an incoming req see
system.mem_ctrls1.rdQLenPdf::28                     0                       # What read queue length does an incoming req see
system.mem_ctrls1.rdQLenPdf::29                     0                       # What read queue length does an incoming req see
system.mem_ctrls1.rdQLenPdf::30                     0                       # What read queue length does an incoming req see
system.mem_ctrls1.rdQLenPdf::31                     0                       # What read queue length does an incoming req see
system.mem_ctrls1.rdQLenPdf::32                     0                       # What read queue length does an incoming req see
system.mem_ctrls1.rdQLenPdf::33                     0                       # What read queue length does an incoming req see
system.mem_ctrls1.rdQLenPdf::34                     0                       # What read queue length does an incoming req see
system.mem_ctrls1.rdQLenPdf::35                     0                       # What read queue length does an incoming req see
system.mem_ctrls1.rdQLenPdf::36                     0                       # What read queue length does an incoming req see
system.mem_ctrls1.rdQLenPdf::37                     0                       # What read queue length does an incoming req see
system.mem_ctrls1.rdQLenPdf::38                     0                       # What read queue length does an incoming req see
system.mem_ctrls1.rdQLenPdf::39                     0                       # What read queue length does an incoming req see
system.mem_ctrls1.rdQLenPdf::40                     0                       # What read queue length does an incoming req see
system.mem_ctrls1.rdQLenPdf::41                     0                       # What read queue length does an incoming req see
system.mem_ctrls1.rdQLenPdf::42                     0                       # What read queue length does an incoming req see
system.mem_ctrls1.rdQLenPdf::43                     0                       # What read queue length does an incoming req see
system.mem_ctrls1.rdQLenPdf::44                     0                       # What read queue length does an incoming req see
system.mem_ctrls1.rdQLenPdf::45                     0                       # What read queue length does an incoming req see
system.mem_ctrls1.rdQLenPdf::46                     0                       # What read queue length does an incoming req see
system.mem_ctrls1.rdQLenPdf::47                     0                       # What read queue length does an incoming req see
system.mem_ctrls1.rdQLenPdf::48                     0                       # What read queue length does an incoming req see
system.mem_ctrls1.rdQLenPdf::49                     0                       # What read queue length does an incoming req see
system.mem_ctrls1.rdQLenPdf::50                     0                       # What read queue length does an incoming req see
system.mem_ctrls1.rdQLenPdf::51                     0                       # What read queue length does an incoming req see
system.mem_ctrls1.rdQLenPdf::52                     0                       # What read queue length does an incoming req see
system.mem_ctrls1.rdQLenPdf::53                     0                       # What read queue length does an incoming req see
system.mem_ctrls1.rdQLenPdf::54                     0                       # What read queue length does an incoming req see
system.mem_ctrls1.rdQLenPdf::55                     0                       # What read queue length does an incoming req see
system.mem_ctrls1.rdQLenPdf::56                     0                       # What read queue length does an incoming req see
system.mem_ctrls1.rdQLenPdf::57                     0                       # What read queue length does an incoming req see
system.mem_ctrls1.rdQLenPdf::58                     0                       # What read queue length does an incoming req see
system.mem_ctrls1.rdQLenPdf::59                     0                       # What read queue length does an incoming req see
system.mem_ctrls1.rdQLenPdf::60                     0                       # What read queue length does an incoming req see
system.mem_ctrls1.rdQLenPdf::61                     0                       # What read queue length does an incoming req see
system.mem_ctrls1.rdQLenPdf::62                     0                       # What read queue length does an incoming req see
system.mem_ctrls1.rdQLenPdf::63                     0                       # What read queue length does an incoming req see
system.mem_ctrls1.wrQLenPdf::0                      1                       # What write queue length does an incoming req see
system.mem_ctrls1.wrQLenPdf::1                      1                       # What write queue length does an incoming req see
system.mem_ctrls1.wrQLenPdf::2                      1                       # What write queue length does an incoming req see
system.mem_ctrls1.wrQLenPdf::3                      1                       # What write queue length does an incoming req see
system.mem_ctrls1.wrQLenPdf::4                      1                       # What write queue length does an incoming req see
system.mem_ctrls1.wrQLenPdf::5                      1                       # What write queue length does an incoming req see
system.mem_ctrls1.wrQLenPdf::6                      1                       # What write queue length does an incoming req see
system.mem_ctrls1.wrQLenPdf::7                      1                       # What write queue length does an incoming req see
system.mem_ctrls1.wrQLenPdf::8                      1                       # What write queue length does an incoming req see
system.mem_ctrls1.wrQLenPdf::9                      1                       # What write queue length does an incoming req see
system.mem_ctrls1.wrQLenPdf::10                     1                       # What write queue length does an incoming req see
system.mem_ctrls1.wrQLenPdf::11                     1                       # What write queue length does an incoming req see
system.mem_ctrls1.wrQLenPdf::12                     1                       # What write queue length does an incoming req see
system.mem_ctrls1.wrQLenPdf::13                     1                       # What write queue length does an incoming req see
system.mem_ctrls1.wrQLenPdf::14                     1                       # What write queue length does an incoming req see
system.mem_ctrls1.wrQLenPdf::15                     1                       # What write queue length does an incoming req see
system.mem_ctrls1.wrQLenPdf::16                     1                       # What write queue length does an incoming req see
system.mem_ctrls1.wrQLenPdf::17                     1                       # What write queue length does an incoming req see
system.mem_ctrls1.wrQLenPdf::18                     1                       # What write queue length does an incoming req see
system.mem_ctrls1.wrQLenPdf::19                     1                       # What write queue length does an incoming req see
system.mem_ctrls1.wrQLenPdf::20                     1                       # What write queue length does an incoming req see
system.mem_ctrls1.wrQLenPdf::21                     1                       # What write queue length does an incoming req see
system.mem_ctrls1.wrQLenPdf::22                     1                       # What write queue length does an incoming req see
system.mem_ctrls1.wrQLenPdf::23                     1                       # What write queue length does an incoming req see
[...]
system.l2.overall_avg_miss_latency::.cpu.inst 106572.727273                       # average overall miss latency
system.l2.overall_avg_miss_latency::.cpu.data 119314.099207                       # average overall miss latency
system.l2.overall_avg_miss_latency::total 119279.618100                       # average overall miss latency
system.l2.blocked_cycles::no_mshrs                  0                       # number of cycles access was blocked
system.l2.blocked_cycles::no_targets                0                       # number of cycles access was blocked
system.l2.blocked::no_mshrs                         0                       # number of cycles access was blocked
system.l2.blocked::no_targets                       0                       # number of cycles access was blocked
system.l2.avg_blocked_cycles::no_mshrs            nan                       # average number of cycles each access was blocked
system.l2.avg_blocked_cycles::no_targets          nan                       # average number of cycles each access was blocked
system.l2.unused_prefetches                        18                       # number of HardPF blocks evicted w/o reference
system.l2.writebacks::.writebacks              232319                       # number of writebacks
system.l2.writebacks::total                    232319                       # number of writebacks
system.l2.HardPFReq_mshr_misses::.l2.prefetcher         3304                       # number of HardPFReq MSHR misses
system.l2.HardPFReq_mshr_misses::total           3304                       # number of HardPFReq MSHR misses
system.l2.UpgradeReq_mshr_misses::.cpu.data            4                       # number of UpgradeReq MSHR misses
system.l2.UpgradeReq_mshr_misses::total             4                       # number of UpgradeReq MSHR misses
system.l2.ReadExReq_mshr_misses::.cpu.data       207114                       # number of ReadExReq MSHR misses
system.l2.ReadExReq_mshr_misses::total         207114                       # number of ReadExReq MSHR misses
system.l2.ReadCleanReq_mshr_misses::.cpu.inst          715                       # number of ReadCleanReq MSHR misses
system.l2.ReadCleanReq_mshr_misses::total          715                       # number of ReadCleanReq MSHR misses
system.l2.ReadSharedReq_mshr_misses::.cpu.data        56376                       # number of ReadSharedReq MSHR misses
system.l2.ReadSharedReq_mshr_misses::total        56376                       # number of ReadSharedReq MSHR misses
system.l2.demand_mshr_misses::.cpu.inst           715                       # number of demand (read+write) MSHR misses
system.l2.demand_mshr_misses::.cpu.data        263490                       # number of demand (read+write) MSHR misses
system.l2.demand_mshr_misses::total            264205                       # number of demand (read+write) MSHR misses
system.l2.overall_mshr_misses::.cpu.inst          715                       # number of overall MSHR misses
system.l2.overall_mshr_misses::.cpu.data       263490                       # number of overall MSHR misses
system.l2.overall_mshr_misses::.l2.prefetcher         3304                       # number of overall MSHR misses
system.l2.overall_mshr_misses::total           267509                       # number of overall MSHR misses
system.l2.HardPFReq_mshr_miss_latency::.l2.prefetcher    204672590                       # number of HardPFReq MSHR miss cycles
system.l2.HardPFReq_mshr_miss_latency::total    204672590                       # number of HardPFReq MSHR miss cycles
system.l2.UpgradeReq_mshr_miss_latency::.cpu.data       122000                       # number of UpgradeReq MSHR miss cycles
system.l2.UpgradeReq_mshr_miss_latency::total       122000                       # number of UpgradeReq MSHR miss cycles
system.l2.ReadExReq_mshr_miss_latency::.cpu.data  20180285000                       # number of ReadExReq MSHR miss cycles
system.l2.ReadExReq_mshr_miss_latency::total  20180285000                       # number of ReadExReq MSHR miss cycles
system.l2.ReadCleanReq_mshr_miss_latency::.cpu.inst     61184500                       # number of ReadCleanReq MSHR miss cycles
system.l2.ReadCleanReq_mshr_miss_latency::total     61184500                       # number of ReadCleanReq MSHR miss cycles
system.l2.ReadSharedReq_mshr_miss_latency::.cpu.data   5724497000                       # number of ReadSharedReq MSHR miss cycles
system.l2.ReadSharedReq_mshr_miss_latency::total   5724497000                       # number of ReadSharedReq MSHR miss cycles
system.l2.demand_mshr_miss_latency::.cpu.inst     61184500                       # number of demand (read+write) MSHR miss cycles
system.l2.demand_mshr_miss_latency::.cpu.data  25904782000                       # number of demand (read+write) MSHR miss cycles
system.l2.demand_mshr_miss_latency::total  25965966500                       # number of demand (read+write) MSHR miss cycles
system.l2.overall_mshr_miss_latency::.cpu.inst     61184500                       # number of overall MSHR miss cycles
system.l2.overall_mshr_miss_latency::.cpu.data  25904782000                       # number of overall MSHR miss cycles
system.l2.overall_mshr_miss_latency::.l2.prefetcher    204672590                       # number of overall MSHR miss cycles
system.l2.overall_mshr_miss_latency::total  26170639090                       # number of overall MSHR miss cycles
system.l2.HardPFReq_mshr_miss_rate::.l2.prefetcher          inf                       # mshr miss rate for HardPFReq accesses
system.l2.HardPFReq_mshr_miss_rate::total          inf                       # mshr miss rate for HardPFReq accesses
system.l2.UpgradeReq_mshr_miss_rate::.cpu.data            1                       # mshr miss rate for UpgradeReq accesses
system.l2.UpgradeReq_mshr_miss_rate::total            1                       # mshr miss rate for UpgradeReq accesses
system.l2.ReadExReq_mshr_miss_rate::.cpu.data     0.984691                       # mshr miss rate for ReadExReq accesses
system.l2.ReadExReq_mshr_miss_rate::total     0.984691                       # mshr miss rate for ReadExReq accesses
system.l2.ReadCleanReq_mshr_miss_rate::.cpu.inst     0.117483                       # mshr miss rate for ReadCleanReq accesses
system.l2.ReadCleanReq_mshr_miss_rate::total     0.117483                       # mshr miss rate for ReadCleanReq accesses
system.l2.ReadSharedReq_mshr_miss_rate::.cpu.data     0.564223                       # mshr miss rate for ReadSharedReq accesses
system.l2.ReadSharedReq_mshr_miss_rate::total     0.564223                       # mshr miss rate for ReadSharedReq accesses
system.l2.demand_mshr_miss_rate::.cpu.inst     0.117483                       # mshr miss rate for demand accesses
system.l2.demand_mshr_miss_rate::.cpu.data     0.849277                       # mshr miss rate for demand accesses
system.l2.demand_mshr_miss_rate::total       0.835198                       # mshr miss rate for demand accesses
system.l2.overall_mshr_miss_rate::.cpu.inst     0.117483                       # mshr miss rate for overall accesses
system.l2.overall_mshr_miss_rate::.cpu.data     0.849277                       # mshr miss rate for overall accesses
system.l2.overall_mshr_miss_rate::.l2.prefetcher          inf                       # mshr miss rate for overall accesses
system.l2.overall_mshr_miss_rate::total      0.845643                       # mshr miss rate for overall accesses
system.l2.HardPFReq_avg_mshr_miss_latency::.l2.prefetcher 61946.909806                       # average HardPFReq mshr miss latency
system.l2.HardPFReq_avg_mshr_miss_latency::total 61946.909806                       # average HardPFReq mshr miss latency
system.l2.UpgradeReq_avg_mshr_miss_latency::.cpu.data        30500                       # average UpgradeReq mshr miss latency
system.l2.UpgradeReq_avg_mshr_miss_latency::total        30500                       # average UpgradeReq mshr miss latency
system.l2.ReadExReq_avg_mshr_miss_latency::.cpu.data 97435.639310                       # average ReadExReq mshr miss latency
system.l2.ReadExReq_avg_mshr_miss_latency::total 97435.639310                       # average ReadExReq mshr miss latency
system.l2.ReadCleanReq_avg_mshr_miss_latency::.cpu.inst 85572.727273                       # average ReadCleanReq mshr miss latency
system.l2.ReadCleanReq_avg_mshr_miss_latency::total 85572.727273                       # average ReadCleanReq mshr miss latency
system.l2.ReadSharedReq_avg_mshr_miss_latency::.cpu.data 101541.382858                       # average ReadSharedReq mshr miss latency
system.l2.ReadSharedReq_avg_mshr_miss_latency::total 101541.382858                       # average ReadSharedReq mshr miss latency
system.l2.demand_avg_mshr_miss_latency::.cpu.inst 85572.727273                       # average overall mshr miss latency
system.l2.demand_avg_mshr_miss_latency::.cpu.data 98314.099207                       # average overall mshr miss latency
system.l2.demand_avg_mshr_miss_latency::total 98279.618100                       # average overall mshr miss latency
system.l2.overall_avg_mshr_miss_latency::.cpu.inst 85572.727273                       # average overall mshr miss latency
system.l2.overall_avg_mshr_miss_latency::.cpu.data 98314.099207                       # average overall mshr miss latency
system.l2.overall_avg_mshr_miss_latency::.l2.prefetcher 61946.909806                       # average overall mshr miss latency
system.l2.overall_avg_mshr_miss_latency::total 97830.873316                       # average overall mshr miss latency
system.l2.replacements                         232681                       # number of replacements
system.membus.snoop_filter.tot_requests        499654                       # Total number of requests made to the snoop filter.
system.membus.snoop_filter.hit_single_requests       232872                       # Number of requests hitting in the snoop filter with a single holder of the requested data.
system.membus.snoop_filter.hit_multi_requests            0                       # Number of requests hitting in the snoop filter with multiple (>1) holders of the requested data.
system.membus.snoop_filter.tot_snoops               0                       # Total number of snoops made to the snoop filter.
system.membus.snoop_filter.hit_single_snoops            0                       # Number of snoops hitting in the snoop filter with a single holder of the requested data.
system.membus.snoop_filter.hit_multi_snoops            0                       # Number of snoops hitting in the snoop filter with multiple (>1) holders of the requested data.
system.membus.pwrStateResidencyTicks::UNDEFINED 100000000000                       # Cumulative time (in ticks) in various power states
system.membus.trans_dist::ReadResp              59855                       # Transaction distribution
system.membus.trans_dist::WritebackDirty       232319                       # Transaction distribution
system.membus.trans_dist::CleanEvict              362                       # Transaction distribution
system.membus.trans_dist::UpgradeReq                4                       # Transaction distribution
system.membus.trans_dist::ReadExReq            207114                       # Transaction distribution
system.membus.trans_dist::ReadExResp           207114                       # Transaction distribution
system.membus.trans_dist::ReadCleanReq          59855                       # Transaction distribution
system.membus.pkt_count_system.l2.mem_side::system.mem_ctrls0.port       383578                       # Packet count per connected master and slave (bytes)
system.membus.pkt_count_system.l2.mem_side::system.mem_ctrls1.port       383045                       # Packet count per connected master and slave (bytes)
system.membus.pkt_count_system.l2.mem_side::total       766623                       # Packet count per connected master and slave (bytes)
system.membus.pkt_count::total                 766623                       # Packet count per connected master and slave (bytes)
system.membus.pkt_size_system.l2.mem_side::system.mem_ctrls0.port     15985536                       # Cumulative packet size per connected master and slave (bytes)
system.membus.pkt_size_system.l2.mem_side::system.mem_ctrls1.port     15968896                       # Cumulative packet size per connected master and slave (bytes)
system.membus.pkt_size_system.l2.mem_side::total     31954432                       # Cumulative packet size per connected master and slave (bytes)
system.membus.pkt_size::total                31954432                       # Cumulative packet size per connected master and slave (bytes)
system.membus.snoops                                0                       # Total snoops (count)
system.membus.snoopTraffic                          0                       # Total snoop traffic (bytes)
system.membus.snoop_fanout::samples            266973                       # Request fanout histogram
system.membus.snoop_fanout::mean                    0                       # Request fanout histogram
system.membus.snoop_fanout::stdev                   0                       # Request fanout histogram
system.membus.snoop_fanout::underflows              0      0.00%      0.00% # Request fanout histogram
system.membus.snoop_fanout::0                  266973    100.00%    100.00% # Request fanout histogram
system.membus.snoop_fanout::1                       0      0.00%    100.00% # Request fanout histogram
system.membus.snoop_fanout::overflows               0      0.00%    100.00% # Request fanout histogram
system.membus.snoop_fanout::min_value               0                       # Request fanout histogram
system.membus.snoop_fanout::max_value               0                       # Request fanout histogram
system.membus.snoop_fanout::total              266973                       # Request fanout histogram
system.membus.reqLayer2.occupancy           740223908                       # Layer occupancy (ticks)
system.membus.reqLayer2.utilization               0.7                       # Layer utilization (%)
system.membus.reqLayer3.occupancy           739769393                       # Layer occupancy (ticks)
system.membus.reqLayer3.utilization               0.7                       # Layer utilization (%)
system.membus.respLayer1.occupancy         1420259139                       # Layer occupancy (ticks)
system.membus.respLayer1.utilization              1.4                       # Layer utilization (%)
system.tol2bus.snoop_filter.tot_requests       631219                       # Total number of requests made to the snoop filter.
system.tol2bus.snoop_filter.hit_single_requests       314876                       # Number of requests hitting in the snoop filter with a single holder of the requested data.
system.tol2bus.snoop_filter.hit_multi_requests          377                       # Number of requests hitting in the snoop filter with multiple (>1) holders of the requested data.
system.tol2bus.snoop_filter.tot_snoops            540                       # Total number of snoops made to the snoop filter.
system.tol2bus.snoop_filter.hit_single_snoops          540                       # Number of snoops hitting in the snoop filter with a single holder of the requested data.
system.tol2bus.snoop_filter.hit_multi_snoops            0                       # Number of snoops hitting in the snoop filter with multiple (>1) holders of the requested data.
system.tol2bus.pwrStateResidencyTicks::UNDEFINED 100000000000                       # Cumulative time (in ticks) in various power states
system.tol2bus.trans_dist::ReadResp            106008                       # Transaction distribution
system.tol2bus.trans_dist::WritebackDirty       522192                       # Transaction distribution
system.tol2bus.trans_dist::WritebackClean        25000                       # Transaction distribution
system.tol2bus.trans_dist::CleanEvict             362                       # Transaction distribution
system.tol2bus.trans_dist::HardPFReq             4421                       # Transaction distribution
system.tol2bus.trans_dist::UpgradeReq               4                       # Transaction distribution
system.tol2bus.trans_dist::UpgradeResp              4                       # Transaction distribution
system.tol2bus.trans_dist::ReadExReq           210334                       # Transaction distribution
system.tol2bus.trans_dist::ReadExResp          210334                       # Transaction distribution
system.tol2bus.trans_dist::ReadCleanReq          6090                       # Transaction distribution
system.tol2bus.trans_dist::ReadSharedReq        99918                       # Transaction distribution
system.tol2bus.pkt_count_system.cpu.icache.mem_side::system.l2.cpu_side        17821                       # Packet count per connected master and slave (bytes)
system.tol2bus.pkt_count_system.cpu.dcache.mem_side::system.l2.cpu_side       929740                       # Packet count per connected master and slave (bytes)
system.tol2bus.pkt_count::total                947561                       # Packet count per connected master and slave (bytes)
system.tol2bus.pkt_size_system.cpu.icache.mem_side::system.l2.cpu_side       750784                       # Cumulative packet size per connected master and slave (bytes)
system.tol2bus.pkt_size_system.cpu.dcache.mem_side::system.l2.cpu_side     39646720                       # Cumulative packet size per connected master and slave (bytes)
system.tol2bus.pkt_size::total               40397504                       # Cumulative packet size per connected master and slave (bytes)
system.tol2bus.snoops                          237106                       # Total snoops (count)
system.tol2bus.snoopTraffic                  14868672                       # Total snoop traffic (bytes)
system.tol2bus.snoop_fanout::samples           553448                       # Request fanout histogram
system.tol2bus.snoop_fanout::mean            0.001662                       # Request fanout histogram
system.tol2bus.snoop_fanout::stdev           0.040738                       # Request fanout histogram
system.tol2bus.snoop_fanout::underflows             0      0.00%      0.00% # Request fanout histogram
system.tol2bus.snoop_fanout::0                 552528     99.83%     99.83% # Request fanout histogram
system.tol2bus.snoop_fanout::1                    920      0.17%    100.00% # Request fanout histogram
system.tol2bus.snoop_fanout::2                      0      0.00%    100.00% # Request fanout histogram
system.tol2bus.snoop_fanout::3                      0      0.00%    100.00% # Request fanout histogram
system.tol2bus.snoop_fanout::4                      0      0.00%    100.00% # Request fanout histogram
system.tol2bus.snoop_fanout::overflows              0      0.00%    100.00% # Request fanout histogram
system.tol2bus.snoop_fanout::min_value              0                       # Request fanout histogram
system.tol2bus.snoop_fanout::max_value              1                       # Request fanout histogram
system.tol2bus.snoop_fanout::total             553448                       # Request fanout histogram
system.tol2bus.reqLayer0.occupancy          630482500                       # Layer occupancy (ticks)
system.tol2bus.reqLayer0.utilization              0.6                       # Layer utilization (%)
system.tol2bus.respLayer0.occupancy           9135000                       # Layer occupancy (ticks)
system.tol2bus.respLayer0.utilization             0.0                       # Layer utilization (%)
system.tol2bus.respLayer1.occupancy         465384491                       # Layer occupancy (ticks)
system.tol2bus.respLayer1.utilization             0.5                       # Layer utilization (%)

---------- End Simulation Statistics   ----------
