
---------- Begin Simulation Statistics ----------
sim_seconds                                  0.100000                       # Number of seconds simulated
sim_ticks                                100000000000                       # Number of ticks simulated
final_tick                               100000000000                       # Number of ticks from beginning of simulation (restored from checkpoints and never reset)
sim_freq                                 1000000000000                       # Frequency of simulated ticks
host_inst_rate                                  29290                       # Simulator instruction rate (inst/s)
host_op_rate                                    56877                       # Simulator op (including micro ops) rate (op/s)
host_tick_rate                               15688580                       # Simulator tick rate (ticks/s)
host_mem_usage                               67311168                       # Number of bytes of host memory used
host_seconds                                  6374.06                       # Real time elapsed on the host
sim_insts                                   186698745                       # Number of instructions simulated
sim_ops                                     362534566                       # Number of ops (including micro ops) simulated
system.voltage_domain.voltage                       1                       # Voltage in Volts
system.clk_domain.clock                          1000                       # Clock period in ticks
system.mem_ctrls0.pwrStateResidencyTicks::UNDEFINED 100000000000                       # Cumulative time (in ticks) in various power states
system.mem_ctrls0.bytes_read::.cpu.inst         24000                       # Number of bytes read from this memory
system.mem_ctrls0.bytes_read::.cpu.data       8301440                       # Number of bytes read from this memory
system.mem_ctrls0.bytes_read::.l2.prefetcher        88704                       # Number of bytes read from this memory
system.mem_ctrls0.bytes_read::total           8414144                       # Number of bytes read from this memory
system.mem_ctrls0.bytes_inst_read::.cpu.inst        24000                       # Number of instructions bytes read from this memory
system.mem_ctrls0.bytes_inst_read::total        24000                       # Number of instructions bytes read from this memory
system.mem_ctrls0.bytes_written::.writebacks      7303616                       # Number of bytes written to this memory
system.mem_ctrls0.bytes_written::total        7303616                       # Number of bytes written to this memory
system.mem_ctrls0.num_reads::.cpu.inst            375                       # Number of read requests responded to by this memory
system.mem_ctrls0.num_reads::.cpu.data         129710                       # Number of read requests responded to by this memory
system.mem_ctrls0.num_reads::.l2.prefetcher         1386                       # Number of read requests responded to by this memory
system.mem_ctrls0.num_reads::total             131471                       # Number of read requests responded to by this memory
system.mem_ctrls0.num_writes::.writebacks       114119                       # Number of write requests responded to by this memory
system.mem_ctrls0.num_writes::total            114119                       # Number of write requests responded to by this memory
system.mem_ctrls0.bw_read::.cpu.inst           240000                       # Total read bandwidth from this memory (bytes/s)
system.mem_ctrls0.bw_read::.cpu.data         83014400                       # Total read bandwidth from this memory (bytes/s)
system.mem_ctrls0.bw_read::.l2.prefetcher       887040                       # Total read bandwidth from this memory (bytes/s)
system.mem_ctrls0.bw_read::total             84141440                       # Total read bandwidth from this memory (bytes/s)
system.mem_ctrls0.bw_inst_read::.cpu.inst       240000                       # Instruction read bandwidth from this memory (bytes/s)
system.mem_ctrls0.bw_inst_read::total          240000                       # Instruction read bandwidth from this memory (bytes/s)
system.mem_ctrls0.bw_write::.writebacks      73036160                       # Write bandwidth from this memory (bytes/s)
system.mem_ctrls0.bw_write::total            73036160                       # Write bandwidth from this memory (bytes/s)
system.mem_ctrls0.bw_total::.writebacks      73036160                       # Total bandwidth to/from this memory (bytes/s)
system.mem_ctrls0.bw_total::.cpu.inst          240000                       # Total bandwidth to/from this memory (bytes/s)
system.mem_ctrls0.bw_total::.cpu.data        83014400                       # Total bandwidth to/from this memory (bytes/s)
system.mem_ctrls0.bw_total::.l2.prefetcher       887040                       # Total bandwidth to/from this memory (bytes/s)
system.mem_ctrls0.bw_total::total           157177600                       # Total bandwidth to/from this memory (bytes/s)
system.mem_ctrls0.avgPriority_.writebacks::samples    114119.00                       # Average QoS priority value for accepted requests
system.mem_ctrls0.avgPriority_.cpu.inst::samples       375.00                       # Average QoS priority value for accepted requests
system.mem_ctrls0.avgPriority_.cpu.data::samples    129691.00                       # Average QoS priority value for accepted requests
system.mem_ctrls0.avgPriority_.l2.prefetcher::samples      1386.00                       # Average QoS priority value for accepted requests
system.mem_ctrls0.priorityMinLatency     0.000000017492                       # per QoS priority minimum request to response latency (s)
system.mem_ctrls0.priorityMaxLatency     0.001829853652                       # per QoS priority maximum request to response latency (s)
system.mem_ctrls0.numReadWriteTurnArounds         6438                       # Number of turnarounds from READ to WRITE
system.mem_ctrls0.numWriteReadTurnArounds         6438                       # Number of turnarounds from WRITE to READ
system.mem_ctrls0.numStayReadState             398053                       # Number of times bus staying in READ state
system.mem_ctrls0.numStayWriteState            107665                       # Number of times bus staying in WRITE state
system.mem_ctrls0.readReqs                     131471                       # Number of read requests accepted
system.mem_ctrls0.writeReqs                    114119                       # Number of write requests accepted
system.mem_ctrls0.readBursts                   131471                       # Number of DRAM read bursts, including those serviced by the write queue
system.mem_ctrls0.writeBursts                  114119                       # Number of DRAM write bursts, including those merged in the write queue
system.mem_ctrls0.bytesReadDRAM               8412928                       # Total number of bytes read from DRAM
system.mem_ctrls0.bytesReadWrQ                   1216                       # Total number of bytes read from write queue
system.mem_ctrls0.bytesWritten                7299712                       # Total number of bytes written to DRAM
system.mem_ctrls0.bytesReadSys                8414144                       # Total read bytes from the system interface side
system.mem_ctrls0.bytesWrittenSys             7303616                       # Total written bytes from the system interface side
system.mem_ctrls0.servicedByWrQ                    19                       # Number of DRAM read bursts serviced by the write queue
system.mem_ctrls0.mergedWrBursts                    0                       # Number of DRAM write bursts merged with an existing one
system.mem_ctrls0.neitherReadNorWriteReqs            0                       # Number of requests that are neither read nor write
system.mem_ctrls0.perBankRdBursts::0             4259                       # Per bank write bursts
system.mem_ctrls0.perBankRdBursts::1             4251                       # Per bank write bursts
system.mem_ctrls0.perBankRdBursts::2             4223                       # Per bank write bursts
system.mem_ctrls0.perBankRdBursts::3             4180                       # Per bank write bursts
system.mem_ctrls0.perBankRdBursts::4             4165                       # Per bank write bursts
system.mem_ctrls0.perBankRdBursts::5             4074                       # Per bank write bursts
system.mem_ctrls0.perBankRdBursts::6             4077                       # Per bank write bursts
system.mem_ctrls0.perBankRdBursts::7             4027                       # Per bank write bursts
system.mem_ctrls0.perBankRdBursts::8             4030                       # Per bank write bursts
system.mem_ctrls0.perBankRdBursts::9             3970                       # Per bank write bursts
system.mem_ctrls0.perBankRdBursts::10            3967                       # Per bank write bursts
system.mem_ctrls0.perBankRdBursts::11            4045                       # Per bank write bursts
system.mem_ctrls0.perBankRdBursts::12            4072                       # Per bank write bursts
system.mem_ctrls0.perBankRdBursts::13            4101                       # Per bank write bursts
system.mem_ctrls0.perBankRdBursts::14            4196                       # Per bank write bursts
system.mem_ctrls0.perBankRdBursts::15            4243                       # Per bank write bursts
system.mem_ctrls0.perBankRdBursts::16            4247                       # Per bank write bursts
system.mem_ctrls0.perBankRdBursts::17            4357                       # Per bank write bursts
system.mem_ctrls0.perBankRdBursts::18            4289                       # Per bank write bursts
system.mem_ctrls0.perBankRdBursts::19            4240                       # Per bank write bursts
system.mem_ctrls0.perBankRdBursts::20            4141                       # Per bank write bursts
system.mem_ctrls0.perBankRdBursts::21            4130                       # Per bank write bursts
system.mem_ctrls0.perBankRdBursts::22            4089                       # Per bank write bursts
system.mem_ctrls0.perBankRdBursts::23            3983                       # Per bank write bursts
system.mem_ctrls0.perBankRdBursts::24            3988                       # Per bank write bursts
system.mem_ctrls0.perBankRdBursts::25            3944                       # Per bank write bursts
system.mem_ctrls0.perBankRdBursts::26            3978                       # Per bank write bursts
system.mem_ctrls0.perBankRdBursts::27            3964                       # Per bank write bursts
system.mem_ctrls0.perBankRdBursts::28            3941                       # Per bank write bursts
system.mem_ctrls0.perBankRdBursts::29            4072                       # Per bank write bursts
system.mem_ctrls0.perBankRdBursts::30            4058                       # Per bank write bursts
system.mem_ctrls0.perBankRdBursts::31            4151                       # Per bank write bursts
system.mem_ctrls0.perBankWrBursts::0             3726                       # Per bank write bursts
system.mem_ctrls0.perBankWrBursts::1             3727                       # Per bank write bursts
system.mem_ctrls0.perBankWrBursts::2             3661                       # Per bank write bursts
system.mem_ctrls0.perBankWrBursts::3             3589                       # Per bank write bursts
system.mem_ctrls0.perBankWrBursts::4             3567                       # Per bank write bursts
system.mem_ctrls0.perBankWrBursts::5             3498                       # Per bank write bursts
system.mem_ctrls0.perBankWrBursts::6             3473                       # Per bank write bursts
system.mem_ctrls0.perBankWrBursts::7             3448                       # Per bank write bursts
system.mem_ctrls0.perBankWrBursts::8             3463                       # Per bank write bursts
system.mem_ctrls0.perBankWrBursts::9             3484                       # Per bank write bursts
system.mem_ctrls0.perBankWrBursts::10            3477                       # Per bank write bursts
system.mem_ctrls0.perBankWrBursts::11            3528                       # Per bank write bursts
system.mem_ctrls0.perBankWrBursts::12            3528                       # Per bank write bursts
system.mem_ctrls0.perBankWrBursts::13            3624                       # Per bank write bursts
system.mem_ctrls0.perBankWrBursts::14            3635                       # Per bank write bursts
system.mem_ctrls0.perBankWrBursts::15            3631                       # Per bank write bursts
system.mem_ctrls0.perBankWrBursts::16            3699                       # Per bank write bursts
system.mem_ctrls0.perBankWrBursts::17            3792                       # Per bank write bursts
system.mem_ctrls0.perBankWrBursts::18            3754                       # Per bank write bursts
system.mem_ctrls0.perBankWrBursts::19            3689                       # Per bank write bursts
system.mem_ctrls0.perBankWrBursts::20            3627                       # Per bank write bursts
system.mem_ctrls0.perBankWrBursts::21            3602                       # Per bank write bursts
system.mem_ctrls0.perBankWrBursts::22            3529                       # Per bank write bursts
system.mem_ctrls0.perBankWrBursts::23            3485                       # Per bank write bursts
system.mem_ctrls0.perBankWrBursts::24            3463                       # Per bank write bursts
system.mem_ctrls0.perBankWrBursts::25            3366                       # Per bank write bursts
system.mem_ctrls0.perBankWrBursts::26            3413                       # Per bank write bursts
system.mem_ctrls0.perBankWrBursts::27            3417                       # Per bank write bursts
system.mem_ctrls0.perBankWrBursts::28            3430                       # Per bank write bursts
system.mem_ctrls0.perBankWrBursts::29            3497                       # Per bank write bursts
system.mem_ctrls0.perBankWrBursts::30            3553                       # Per bank write bursts
system.mem_ctrls0.perBankWrBursts::31            3683                       # Per bank write bursts
system.mem_ctrls0.numRdRetry                        0                       # Number of times read queue was full causing retry
system.mem_ctrls0.numWrRetry                        0                       # Number of times write queue was full causing retry
system.mem_ctrls0.totGap                  99999438000                       # Total gap between requests
system.mem_ctrls0.readPktSize::0                    0                       # Read request sizes (log2)
system.mem_ctrls0.readPktSize::1                    0                       # Read request sizes (log2)
system.mem_ctrls0.readPktSize::2                    0                       # Read request sizes (log2)
system.mem_ctrls0.readPktSize::3                    0                       # Read request sizes (log2)
system.mem_ctrls0.readPktSize::4                    0                       # Read request sizes (log2)
system.mem_ctrls0.readPktSize::5                    0                       # Read request sizes (log2)
system.mem_ctrls0.readPktSize::6               131471                       # Read request sizes (log2)
system.mem_ctrls0.writePktSize::0                   0                       # Write request sizes (log2)
system.mem_ctrls0.writePktSize::1                   0                       # Write request sizes (log2)
system.mem_ctrls0.writePktSize::2                   0                       # Write request sizes (log2)
system.mem_ctrls0.writePktSize::3                   0                       # Write request sizes (log2)
system.mem_ctrls0.writePktSize::4                   0                       # Write request sizes (log2)
system.mem_ctrls0.writePktSize::5                   0                       # Write request sizes (log2)
system.mem_ctrls0.writePktSize::6              114119                       # Write request sizes (log2)
system.mem_ctrls0.rdQLenPdf::0                 117736                       # What read queue length does an incoming req see
system.mem_ctrls0.rdQLenPdf::1                  11941                       # What read queue length does an incoming req see
system.mem_ctrls0.rdQLenPdf::2                   1605                       # What read queue length does an incoming req see
system.mem_ctrls0.rdQLenPdf::3                    160                       # What read queue length does an incoming req see
system.mem_ctrls0.rdQLenPdf::4                     10                       # What read queue length does an incoming req see
system.mem_ctrls0.rdQLenPdf::5                      0                       # What read queue length does an incoming req see
system.mem_ctrls0.rdQLenPdf::6                      0                       # What read queue length does an incoming req see
system.mem_ctrls0.rdQLenPdf::7                      0                       # What read queue length does an incoming req see
system.mem_ctrls0.rdQLenPdf::8                      0                       # What read queue length does an incoming req see
system.mem_ctrls0.rdQLenPdf::9                      0                       # What read queue length does an incoming req see
system.mem_ctrls0.rdQLenPdf::10                     0                       # What read queue length does an incoming req see
system.mem_ctrls0.rdQLenPdf::11                     0                       # What read queue length does an incoming req see
system.mem_ctrls0.rdQLenPdf::12                     0                       # What read queue length does an incoming req see
system.mem_ctrls0.rdQLenPdf::13                     0                       # What read queue length does an incoming req see
system.mem_ctrls0.rdQLenPdf::14                     0                       # What read queue length does an incoming req see
system.mem_ctrls0.rdQLenPdf::15                     0                       # What read queue length does an incoming req see
system.mem_ctrls0.rdQLenPdf::16                     0                       # What read queue length does an incoming req see
system.mem_ctrls0.rdQLenPdf::17                     0                       # What read queue length does an incoming req see
system.mem_ctrls0.rdQLenPdf::18                     0                       # What read queue length does an incoming req see
system.mem_ctrls0.rdQLenPdf::19                     0                       # What read queue length does an incoming req see
system.mem_ctrls0.rdQLenPdf::20                     0                       # What read queue length does an incoming req see
system.mem_ctrls0.rdQLenPdf::21                     0                       # What read queue length does an incoming req see
system.mem_ctrls0.rdQLenPdf::22                     0                       # What read queue length does an incoming req see
system.mem_ctrls0.rdQLenPdf::23                     0                       # What read queue length does an incoming req see
system.mem_ctrls0.rdQLenPdf::24                     0                       # What read queue length does an incoming req see
system.mem_ctrls0.rdQLenPdf::25                     0                       # What read queue length does an incoming req see
system.mem_ctrls0.rdQLenPdf::26                     0                       # What read queue length does an incoming req see
system.mem_ctrls0.rdQLenPdf::27                     0                       # What read queue length does an incoming req see
system.mem_ctrls0.rdQLenPdf::28                     0                       # What read queue length does an incoming req see
system.mem_ctrls0.rdQLenPdf::29                     0                       # What read queue length does an incoming req see
system.mem_ctrls0.rdQLenPdf::30                     0                       # What read queue length does an incoming req see
system.mem_ctrls0.rdQLenPdf::31                     0                       # What read queue length does an incoming req see
system.mem_ctrls0.rdQLenPdf::32                     0                       # What read queue length does an incoming req see
system.mem_ctrls0.rdQLenPdf::33                     0                       # What read queue length does an incoming req see
system.mem_ctrls0.rdQLenPdf::34                     0                       # What read queue length does an incoming req see
system.mem_ctrls0.rdQLenPdf::35                     0                       # What read queue length does an incoming req see
system.mem_ctrls0.rdQLenPdf::36                     0                       # What read queue length does an incoming req see
system.mem_ctrls0.rdQLenPdf::37                     0                       # What read queue length does an incoming req see
system.mem_ctrls0.rdQLenPdf::38                     0                       # What read queue length does an incoming req see
system.mem_ctrls0.rdQLenPdf::39                     0                       # What read queue length does an incoming req see
system.mem_ctrls0.rdQLenPdf::40                     0                       # What read queue length does an incoming req see
system.mem_ctrls0.rdQLenPdf::41                     0                       # What read queue length does an incoming req see
system.mem_ctrls0.rdQLenPdf::42                     0                       # What read queue length does an incoming req see
system.mem_ctrls0.rdQLenPdf::43                     0                       # What read queue length does an incoming req see
system.mem_ctrls0.rdQLenPdf::44                     0                       # What read queue length does an incoming req see
system.mem_ctrls0.rdQLenPdf::45                     0                       # What read queue length does an incoming req see
system.mem_ctrls0.rdQLenPdf::46                     0                       # What read queue length does an incoming req see
system.mem_ctrls0.rdQLenPdf::47                     0                       # What read queue length does an incoming req see
system.mem_ctrls0.rdQLenPdf::48                     0                       # What read queue length does an incoming req see
system.mem_ctrls0.rdQLenPdf::49                     0                       # What read queue length does an incoming req see
system.mem_ctrls0.rdQLenPdf::50                     0                       # What read queue length does an incoming req see
system.mem_ctrls0.rdQLenPdf::51                     0                       # What read queue length does an incoming req see
system.mem_ctrls0.rdQLenPdf::52                     0                       # What read queue length does an incoming req see
system.mem_ctrls0.rdQLenPdf::53                     0                       # What read queue length does an incoming req see
system.mem_ctrls0.rdQLenPdf::54                     0                       # What read queue length does an incoming req see
system.mem_ctrls0.rdQLenPdf::55                     0                       # What read queue length does an incoming req see
system.mem_ctrls0.rdQLenPdf::56                     0                       # What read queue length does an incoming req see
system.mem_ctrls0.rdQLenPdf::57                     0                       # What read queue length does an incoming req see
system.mem_ctrls0.rdQLenPdf::58                     0                       # What read queue length does an incoming req see
system.mem_ctrls0.rdQLenPdf::59                     0                       # What read queue length does an incoming req see
system.mem_ctrls0.rdQLenPdf::60                     0                       # What read queue length does an incoming req see
system.mem_ctrls0.rdQLenPdf::61                     0                       # What read queue length does an incoming req see
system.mem_ctrls0.rdQLenPdf::62                     0                       # What read queue length does an incoming req see
system.mem_ctrls0.rdQLenPdf::63                     0                       # What read queue length does an incoming req see
system.mem_ctrls0.wrQLenPdf::0                      1                       # What write queue length does an incoming req see
system.mem_ctrls0.wrQLenPdf::1                      1                       # What write queue length does an incoming req see
system.mem_ctrls0.wrQLenPdf::2                      1                       # What write queue length does an incoming req see
system.mem_ctrls0.wrQLenPdf::3                      1                       # What write queue length does an incoming req see
system.mem_ctrls0.wrQLenPdf::4                      1                       # What write queue length does an incoming req see
system.mem_ctrls0.wrQLenPdf::5                      1                       # What write queue length does an incoming req see
system.mem_ctrls0.wrQLenPdf::6                      1                       # What write queue length does an incoming req see
system.mem_ctrls0.wrQLenPdf::7                      1                       # What write queue length does an incoming req see
system.mem_ctrls0.wrQLenPdf::8                      1                       # What write queue length does an incoming req see
system.mem_ctrls0.wrQLenPdf::9                      1                       # What write queue length does an incoming req see
system.mem_ctrls0.wrQLenPdf::10                     1                       # What write queue length does an incoming req see
system.mem_ctrls0.wrQLenPdf::11                     1                       # What write queue length does an incoming req see
system.mem_ctrls0.wrQLenPdf::12                     1                       # What write queue length does an incoming req see
system.mem_ctrls0.wrQLenPdf::13                     1                       # What write queue length does an incoming req see
system.mem_ctrls0.wrQLenPdf::14                     1                       # What write queue length does an incoming req see
system.mem_ctrls0.wrQLenPdf::15                     1                       # What write queue length does an incoming req see
system.mem_ctrls0.wrQLenPdf::16                     1                       # What write queue length does an incoming req see
system.mem_ctrls0.wrQLenPdf::17                     1                       # What write queue length does an incoming req see
system.mem_ctrls0.wrQLenPdf::18                     1                       # What write queue length does an incoming req see
system.mem_ctrls0.wrQLenPdf::19                     1                       # What write queue length does an incoming req see
system.mem_ctrls0.wrQLenPdf::20                     1                       # What write queue length does an incoming req see
system.mem_ctrls0.wrQLenPdf::21                     1                       # What write queue length does an incoming req see
system.mem_ctrls0.wrQLenPdf::22                     1                       # What write queue length does an incoming req see
system.mem_ctrls0.wrQLenPdf::23                     1                       # What write queue length does an incoming req see
system.mem_ctrls0.wrQLenPdf::24                     1                       # What write queue length does an incoming req see
system.mem_ctrls0.wrQLenPdf::25                     1                       # What write queue length does an incoming req see
system.mem_ctrls0.wrQLenPdf::26                     1                       # What write queue length does an incoming req see
system.mem_ctrls0.wrQLenPdf::27                     1                       # What write queue length does an incoming req see
system.mem_ctrls0.wrQLenPdf::28                     1                       # What write queue length does an incoming req see
system.mem_ctrls0.wrQLenPdf::29                     1                       # What write queue length does an incoming req see
system.mem_ctrls0.wrQLenPdf::30                     1                       # What write queue length does an incoming req see
system.mem_ctrls0.wrQLenPdf::31                     1                       # What write queue length does an incoming req see
system.mem_ctrls0.wrQLenPdf::32                     1                       # What write queue length does an incoming req see
system.mem_ctrls0.wrQLenPdf::33                     1                       # What write queue length does an incoming req see
system.mem_ctrls0.wrQLenPdf::34                     1                       # What write queue length does an incoming req see
system.mem_ctrls0.wrQLenPdf::35                     1                       # What write queue length does an incoming req see
system.mem_ctrls0.wrQLenPdf::36                     1                       # What write queue length does an incoming req see
system.mem_ctrls0.wrQLenPdf::37                     1                       # What write queue length does an incoming req see
system.mem_ctrls0.wrQLenPdf::38                     1                       # What write queue length does an incoming req see
system.mem_ctrls0.wrQLenPdf::39                     1                       # What write queue length does an incoming req see
system.mem_ctrls0.wrQLenPdf::40                     1                       # What write queue length does an incoming req see
system.mem_ctrls0.wrQLenPdf::41                     1                       # What write queue length does an incoming req see
system.mem_ctrls0.wrQLenPdf::42                     1                       # What write queue length does an incoming req see
system.mem_ctrls0.wrQLenPdf::43                     1                       # What write queue length does an incoming req see
system.mem_ctrls0.wrQLenPdf::44                     1                       # What write queue length does an incoming req see
system.mem_ctrls0.wrQLenPdf::45                     1                       # What write queue length does an incoming req see
system.mem_ctrls0.wrQLenPdf::46                     1                       # What write queue length does an incoming req see
system.mem_ctrls0.wrQLenPdf::47                  5143                       # What write queue length does an incoming req see
system.mem_ctrls0.wrQLenPdf::48                  5215                       # What write queue length does an incoming req see
system.mem_ctrls0.wrQLenPdf::49                  6359                       # What write queue length does an incoming req see
system.mem_ctrls0.wrQLenPdf::50                  6484                       # What write queue length does an incoming req see
system.mem_ctrls0.wrQLenPdf::51                  6482                       # What write queue length does an incoming req see
system.mem_ctrls0.wrQLenPdf::52                  6482                       # What write queue length does an incoming req see
system.mem_ctrls0.wrQLenPdf::53                  6487                       # What write queue length does an incoming req see
system.mem_ctrls0.wrQLenPdf::54                  6497                       # What write queue length does an incoming req see
system.mem_ctrls0.wrQLenPdf::55                  6477                       # What write queue length does an incoming req see
system.mem_ctrls0.wrQLenPdf::56                  6463                       # What write queue length does an incoming req see
system.mem_ctrls0.wrQLenPdf::57                  6465                       # What write queue length does an incoming req see
system.mem_ctrls0.wrQLenPdf::58                  6474                       # What write queue length does an incoming req see
system.mem_ctrls0.wrQLenPdf::59                  6506                       # What write queue length does an incoming req see
system.mem_ctrls0.wrQLenPdf::60                  6557                       # What write queue length does an incoming req see
system.mem_ctrls0.wrQLenPdf::61                  6654                       # What write queue length does an incoming req see
system.mem_ctrls0.wrQLenPdf::62                  6440                       # What write queue length does an incoming req see
system.mem_ctrls0.wrQLenPdf::63                  6438                       # What write queue length does an incoming req see
system.mem_ctrls0.wrQLenPdf::64                  6439                       # What write queue length does an incoming req see
system.mem_ctrls0.wrQLenPdf::65                     9                       # What write queue length does an incoming req see
system.mem_ctrls0.wrQLenPdf::66                     1                       # What write queue length does an incoming req see
system.mem_ctrls0.wrQLenPdf::67                     0                       # What write queue length does an incoming req see
system.mem_ctrls0.wrQLenPdf::68                     0                       # What write queue length does an incoming req see
system.mem_ctrls0.wrQLenPdf::69                     0                       # What write queue length does an incoming req see
system.mem_ctrls0.wrQLenPdf::70                     0                       # What write queue length does an incoming req see
system.mem_ctrls0.wrQLenPdf::71                     0                       # What write queue length does an incoming req see
system.mem_ctrls0.wrQLenPdf::72                     0                       # What write queue length does an incoming req see
system.mem_ctrls0.wrQLenPdf::73                     0                       # What write queue length does an incoming req see
system.mem_ctrls0.wrQLenPdf::74                     0                       # What write queue length does an incoming req see
system.mem_ctrls0.wrQLenPdf::75                     0                       # What write queue length does an incoming req see
system.mem_ctrls0.wrQLenPdf::76                     0                       # What write queue length does an incoming req see
system.mem_ctrls0.wrQLenPdf::77                     0                       # What write queue length does an incoming req see
system.mem_ctrls0.wrQLenPdf::78                     0                       # What write queue length does an incoming req see
system.mem_ctrls0.wrQLenPdf::79                     0                       # What write queue length does an incoming req see
system.mem_ctrls0.wrQLenPdf::80                     0                       # What write queue length does an incoming req see
system.mem_ctrls0.wrQLenPdf::81                     0                       # What write queue length does an incoming req see
system.mem_ctrls0.wrQLenPdf::82                     0                       # What write queue length does an incoming req see
system.mem_ctrls0.wrQLenPdf::83                     0                       # What write queue length does an incoming req see
system.mem_ctrls0.wrQLenPdf::84                     0                       # What write queue length does an incoming req see
system.mem_ctrls0.wrQLenPdf::85                     0                       # What write queue length does an incoming req see
system.mem_ctrls0.wrQLenPdf::86                     0                       # What write queue length does an incoming req see
system.mem_ctrls0.wrQLenPdf::87                     0                       # What write queue length does an incoming req see
system.mem_ctrls0.wrQLenPdf::88                     0                       # What write queue length does an incoming req see
system.mem_ctrls0.wrQLenPdf::89                     0                       # What write queue length does an incoming req see
system.mem_ctrls0.wrQLenPdf::90                     0                       # What write queue length does an incoming req see
system.mem_ctrls0.wrQLenPdf::91                     0                       # What write queue length does an incoming req see
system.mem_ctrls0.wrQLenPdf::92                     0                       # What write queue length does an incoming req see
system.mem_ctrls0.wrQLenPdf::93                     0                       # What write queue length does an incoming req see
system.mem_ctrls0.wrQLenPdf::94                     0                       # What write queue length does an incoming req see
system.mem_ctrls0.wrQLenPdf::95                     0                       # What write queue length does an incoming req see
system.mem_ctrls0.wrQLenPdf::96                     0                       # What write queue length does an incoming req see
system.mem_ctrls0.wrQLenPdf::97                     0                       # What write queue length does an incoming req see
system.mem_ctrls0.wrQLenPdf::98                     0                       # What write queue length does an incoming req see
system.mem_ctrls0.wrQLenPdf::99                     0                       # What write queue length does an incoming req see
system.mem_ctrls0.wrQLenPdf::100                    0                       # What write queue length does an incoming req see
system.mem_ctrls0.wrQLenPdf::101                    0                       # What write queue length does an incoming req see
system.mem_ctrls0.wrQLenPdf::102                    0                       # What write queue length does an incoming req see
system.mem_ctrls0.wrQLenPdf::103                    0                       # What write queue length does an incoming req see
system.mem_ctrls0.wrQLenPdf::104                    0                       # What write queue length does an incoming req see
system.mem_ctrls0.wrQLenPdf::105                    0                       # What write queue length does an incoming req see
system.mem_ctrls0.wrQLenPdf::106                    0                       # What write queue length does an incoming req see
system.mem_ctrls0.wrQLenPdf::107                    0                       # What write queue length does an incoming req see
system.mem_ctrls0.wrQLenPdf::108                    0                       # What write queue length does an incoming req see
system.mem_ctrls0.wrQLenPdf::109                    0                       # What write queue length does an incoming req see
system.mem_ctrls0.wrQLenPdf::110                    0                       # What write queue length does an incoming req see
system.mem_ctrls0.wrQLenPdf::111                    0                       # What write queue length does an incoming req see
system.mem_ctrls0.wrQLenPdf::112                    0                       # What write queue length does an incoming req see
system.mem_ctrls0.wrQLenPdf::113                    0                       # What write queue length does an incoming req see
system.mem_ctrls0.wrQLenPdf::114                    0                       # What write queue length does an incoming req see
system.mem_ctrls0.wrQLenPdf::115                    0                       # What write queue length does an incoming req see
system.mem_ctrls0.wrQLenPdf::116                    0                       # What write queue length does an incoming req see
system.mem_ctrls0.wrQLenPdf::117                    0                       # What write queue length does an incoming req see
system.mem_ctrls0.wrQLenPdf::118                    0                       # What write queue length does an incoming req see
system.mem_ctrls0.wrQLenPdf::119                    0                       # What write queue length does an incoming req see
system.mem_ctrls0.wrQLenPdf::120                    0                       # What write queue length does an incoming req see
system.mem_ctrls0.wrQLenPdf::121                    0                       # What write queue length does an incoming req see
system.mem_ctrls0.wrQLenPdf::122                    0                       # What write queue length does an incoming req see
system.mem_ctrls0.wrQLenPdf::123                    0                       # What write queue length does an incoming req see
system.mem_ctrls0.wrQLenPdf::124                    0                       # What write queue length does an incoming req see
system.mem_ctrls0.wrQLenPdf::125                    0                       # What write queue length does an incoming req see
system.mem_ctrls0.wrQLenPdf::126                    0                       # What write queue length does an incoming req see
system.mem_ctrls0.wrQLenPdf::127                    0                       # What write queue length does an incoming req see
system.mem_ctrls0.bytesPerActivate::samples       171573                       # Bytes accessed per row activation
system.mem_ctrls0.bytesPerActivate::mean    91.579538                       # Bytes accessed per row activation
system.mem_ctrls0.bytesPerActivate::gmean    79.341983                       # Bytes accessed per row activation
system.mem_ctrls0.bytesPerActivate::stdev    71.936463                       # Bytes accessed per row activation
system.mem_ctrls0.bytesPerActivate::0-127       134143     78.18%     78.18% # Bytes accessed per row activation
system.mem_ctrls0.bytesPerActivate::128-255        28232     16.45%     94.64% # Bytes accessed per row activation
system.mem_ctrls0.bytesPerActivate::256-383         6056      3.53%     98.17% # Bytes accessed per row activation
system.mem_ctrls0.bytesPerActivate::384-511         1956      1.14%     99.31% # Bytes accessed per row activation
system.mem_ctrls0.bytesPerActivate::512-639          990      0.58%     99.89% # Bytes accessed per row activation
system.mem_ctrls0.bytesPerActivate::640-767          128      0.07%     99.96% # Bytes accessed per row activation
system.mem_ctrls0.bytesPerActivate::768-895           29      0.02%     99.98% # Bytes accessed per row activation
system.mem_ctrls0.bytesPerActivate::896-1023           18      0.01%     99.99% # Bytes accessed per row activation
system.mem_ctrls0.bytesPerActivate::1024-1151           21      0.01%    100.00% # Bytes accessed per row activation
system.mem_ctrls0.bytesPerActivate::total       171573                       # Bytes accessed per row activation
system.mem_ctrls0.rdPerTurnAround::samples         6438                       # Reads before turning the bus around for writes
system.mem_ctrls0.rdPerTurnAround::mean     20.416900                       # Reads before turning the bus around for writes
system.mem_ctrls0.rdPerTurnAround::gmean    17.489461                       # Reads before turning the bus around for writes
system.mem_ctrls0.rdPerTurnAround::stdev   167.593509                       # Reads before turning the bus around for writes
system.mem_ctrls0.rdPerTurnAround::0-255         6435     99.95%     99.95% # Reads before turning the bus around for writes
system.mem_ctrls0.rdPerTurnAround::256-511            2      0.03%     99.98% # Reads before turning the bus around for writes
system.mem_ctrls0.rdPerTurnAround::13312-13567            1      0.02%    100.00% # Reads before turning the bus around for writes
system.mem_ctrls0.rdPerTurnAround::total         6438                       # Reads before turning the bus around for writes
system.mem_ctrls0.wrPerTurnAround::samples         6438                       # Writes before turning the bus around for reads
system.mem_ctrls0.wrPerTurnAround::mean     17.716372                       # Writes before turning the bus around for reads
system.mem_ctrls0.wrPerTurnAround::gmean    17.691535                       # Writes before turning the bus around for reads
system.mem_ctrls0.wrPerTurnAround::stdev     0.923692                       # Writes before turning the bus around for reads
system.mem_ctrls0.wrPerTurnAround::16            1273     19.77%     19.77% # Writes before turning the bus around for reads
system.mem_ctrls0.wrPerTurnAround::17              13      0.20%     19.98% # Writes before turning the bus around for reads
system.mem_ctrls0.wrPerTurnAround::18            4493     69.79%     89.76% # Writes before turning the bus around for reads
system.mem_ctrls0.wrPerTurnAround::19             593      9.21%     98.97% # Writes before turning the bus around for reads
system.mem_ctrls0.wrPerTurnAround::20              61      0.95%     99.92% # Writes before turning the bus around for reads
system.mem_ctrls0.wrPerTurnAround::21               3      0.05%     99.97% # Writes before turning the bus around for reads
system.mem_ctrls0.wrPerTurnAround::22               1      0.02%     99.98% # Writes before turning the bus around for reads
system.mem_ctrls0.wrPerTurnAround::23               1      0.02%    100.00% # Writes before turning the bus around for reads
system.mem_ctrls0.wrPerTurnAround::total         6438                       # Writes before turning the bus around for reads
system.mem_ctrls0.masterReadBytes::.cpu.inst        24000                       # Per-master bytes read from memory
system.mem_ctrls0.masterReadBytes::.cpu.data      8300224                       # Per-master bytes read from memory
system.mem_ctrls0.masterReadBytes::.l2.prefetcher        88704                       # Per-master bytes read from memory
system.mem_ctrls0.masterWriteBytes::.writebacks      7299712                       # Per-master bytes write to memory
system.mem_ctrls0.masterReadRate::.cpu.inst 240000.000000000000                       # Per-master bytes read from memory rate (Bytes/sec)
system.mem_ctrls0.masterReadRate::.cpu.data 83002240.000000000000                       # Per-master bytes read from memory rate (Bytes/sec)
system.mem_ctrls0.masterReadRate::.l2.prefetcher 887040.000000000000                       # Per-master bytes read from memory rate (Bytes/sec)
system.mem_ctrls0.masterWriteRate::.writebacks 72997120.000000000000                       # Per-master bytes write to memory rate (Bytes/sec)
system.mem_ctrls0.masterReadAccesses::.cpu.inst          375                       # Per-master read serviced memory accesses
system.mem_ctrls0.masterReadAccesses::.cpu.data       129710                       # Per-master read serviced memory accesses
system.mem_ctrls0.masterReadAccesses::.l2.prefetcher         1386                       # Per-master read serviced memory accesses
system.mem_ctrls0.masterWriteAccesses::.writebacks       114119                       # Per-master write serviced memory accesses
system.mem_ctrls0.masterReadTotalLat::.cpu.inst     13352757                       # Per-master read total memory access latency
system.mem_ctrls0.masterReadTotalLat::.cpu.data   6024609245                       # Per-master read total memory access latency
system.mem_ctrls0.masterReadTotalLat::.l2.prefetcher     56981562                       # Per-master read total memory access latency
system.mem_ctrls0.masterWriteTotalLat::.writebacks 5284079498568                       # Per-master write total memory access latency
system.mem_ctrls0.masterReadAvgLat::.cpu.inst     35607.35                       # Per-master read average memory access latency
system.mem_ctrls0.masterReadAvgLat::.cpu.data     46446.76                       # Per-master read average memory access latency
system.mem_ctrls0.masterReadAvgLat::.l2.prefetcher     41112.24                       # Per-master read average memory access latency
system.mem_ctrls0.masterWriteAvgLat::.writebacks  46303240.46                       # Per-master write average memory access latency
system.mem_ctrls0.totQLat                  3795585180                       # Total ticks spent queuing
system.mem_ctrls0.totMemAccLat             6094943564                       # Total ticks spent from burst creation until serviced by the DRAM
system.mem_ctrls0.totBusLat                 437998064                       # Total ticks spent in databus transfers
system.mem_ctrls0.avgQLat                    28874.31                       # Average queueing delay per DRAM burst
system.mem_ctrls0.avgBusLat                   3332.00                       # Average bus latency per DRAM burst
system.mem_ctrls0.avgMemAccLat               46366.31                       # Average memory access latency per DRAM burst
system.mem_ctrls0.avgRdBW                       84.13                       # Average DRAM read bandwidth in MiByte/s
system.mem_ctrls0.avgWrBW                       73.00                       # Average achieved write bandwidth in MiByte/s
system.mem_ctrls0.avgRdBWSys                    84.14                       # Average system read bandwidth in MiByte/s
system.mem_ctrls0.avgWrBWSys                    73.04                       # Average system write bandwidth in MiByte/s
system.mem_ctrls0.peakBW                     19207.00                       # Theoretical peak bandwidth in MiByte/s
system.mem_ctrls0.busUtil                        0.82                       # Data bus utilization in percentage
system.mem_ctrls0.busUtilRead                    0.44                       # Data bus utilization in percentage for reads
system.mem_ctrls0.busUtilWrite                   0.38                       # Data bus utilization in percentage for writes
system.mem_ctrls0.avgRdQLen                      1.12                       # Average read queue length when enqueuing
system.mem_ctrls0.avgWrQLen                     53.79                       # Average write queue length when enqueuing
system.mem_ctrls0.readRowHits                   22310                       # Number of row buffer hits during reads
system.mem_ctrls0.writeRowHits                  51626                       # Number of row buffer hits during writes
system.mem_ctrls0.readRowHitRate                16.97                       # Row buffer hit rate for reads
system.mem_ctrls0.writeRowHitRate               45.24                       # Row buffer hit rate for writes
system.mem_ctrls0.avgGap                    407180.41                       # Average gap between requests
system.mem_ctrls0.pageHitRate                   30.11                       # Row buffer hit rate, read and write combined
system.mem_ctrls0_0.actEnergy            267520309.056028                       # Energy for activate commands per rank (pJ)
system.mem_ctrls0_0.preEnergy            355660674.801581                       # Energy for precharge commands per rank (pJ)
system.mem_ctrls0_0.readEnergy           277112150.783956                       # Energy for read commands per rank (pJ)
system.mem_ctrls0_0.writeEnergy          214456023.264004                       # Energy for write commands per rank (pJ)
system.mem_ctrls0_0.refreshEnergy        17738375138.664616                       # Energy for refresh commands per rank (pJ)
system.mem_ctrls0_0.actBackEnergy        10263610520.956625                       # Energy for active background per rank (pJ)
system.mem_ctrls0_0.preBackEnergy        332858451.340814                       # Energy for precharge background per rank (pJ)
system.mem_ctrls0_0.actPowerDownEnergy   42204171160.166481                       # Energy for active power-down per rank (pJ)
system.mem_ctrls0_0.prePowerDownEnergy   8866481988.000177                       # Energy for precharge power-down per rank (pJ)
system.mem_ctrls0_0.selfRefreshEnergy    386697982.910400                       # Energy for self refresh per rank (pJ)
system.mem_ctrls0_0.totalEnergy          80915097893.246689                       # Total energy per rank (pJ)
system.mem_ctrls0_0.averagePower           809.150979                       # Core power per rank (mW)
system.mem_ctrls0_0.totalIdleTime         87398032523                       # Total Idle time Per DRAM Rank
system.mem_ctrls0_0.memoryStateTime::IDLE    150317318                       # Time in different power states
system.mem_ctrls0_0.memoryStateTime::REF   4481400000                       # Time in different power states
system.mem_ctrls0_0.memoryStateTime::SREF    236304880                       # Time in different power states
system.mem_ctrls0_0.memoryStateTime::PRE_PDN  18471823762                       # Time in different power states
system.mem_ctrls0_0.memoryStateTime::ACT   7968481044                       # Time in different power states
system.mem_ctrls0_0.memoryStateTime::ACT_PDN  68691672996                       # Time in different power states
system.mem_ctrls0_1.actEnergy            267576446.592028                       # Energy for activate commands per rank (pJ)
system.mem_ctrls0_1.preEnergy            355739455.276782                       # Energy for precharge commands per rank (pJ)
system.mem_ctrls0_1.readEnergy           275816605.209560                       # Energy for read commands per rank (pJ)
system.mem_ctrls0_1.writeEnergy          214230513.504004                       # Energy for write commands per rank (pJ)
system.mem_ctrls0_1.refreshEnergy        17739760516.291817                       # Energy for refresh commands per rank (pJ)
system.mem_ctrls0_1.actBackEnergy        10296334638.071791                       # Energy for active background per rank (pJ)
system.mem_ctrls0_1.preBackEnergy        332536532.160015                       # Energy for precharge background per rank (pJ)
system.mem_ctrls0_1.actPowerDownEnergy   42154714854.604889                       # Energy for active power-down per rank (pJ)
system.mem_ctrls0_1.prePowerDownEnergy   8892652715.520147                       # Energy for precharge power-down per rank (pJ)
system.mem_ctrls0_1.selfRefreshEnergy    365550301.368000                       # Energy for self refresh per rank (pJ)
system.mem_ctrls0_1.totalEnergy          80898314893.132721                       # Total energy per rank (pJ)
system.mem_ctrls0_1.averagePower           808.983149                       # Core power per rank (mW)
system.mem_ctrls0_1.totalIdleTime         87362999311                       # Total Idle time Per DRAM Rank
system.mem_ctrls0_1.memoryStateTime::IDLE    144840680                       # Time in different power states
system.mem_ctrls0_1.memoryStateTime::REF   4481750000                       # Time in different power states
system.mem_ctrls0_1.memoryStateTime::SREF    229902880                       # Time in different power states
system.mem_ctrls0_1.memoryStateTime::PRE_PDN  18526364334                       # Time in different power states
system.mem_ctrls0_1.memoryStateTime::ACT   8005834249                       # Time in different power states
system.mem_ctrls0_1.memoryStateTime::ACT_PDN  68611307857                       # Time in different power states
system.mem_ctrls1.pwrStateResidencyTicks::UNDEFINED 100000000000                       # Cumulative time (in ticks) in various power states
system.mem_ctrls1.bytes_read::.cpu.inst         22528                       # Number of bytes read from this memory
system.mem_ctrls1.bytes_read::.cpu.data       8295552                       # Number of bytes read from this memory
system.mem_ctrls1.bytes_read::.l2.prefetcher        88384                       # Number of bytes read from this memory
system.mem_ctrls1.bytes_read::total           8406464                       # Number of bytes read from this memory
system.mem_ctrls1.bytes_inst_read::.cpu.inst        22528                       # Number of instructions bytes read from this memory
system.mem_ctrls1.bytes_inst_read::total        22528                       # Number of instructions bytes read from this memory
system.mem_ctrls1.bytes_written::.writebacks      7303104                       # Number of bytes written to this memory
system.mem_ctrls1.bytes_written::total        7303104                       # Number of bytes written to this memory
system.mem_ctrls1.num_reads::.cpu.inst            352                       # Number of read requests responded to by this memory
system.mem_ctrls1.num_reads::.cpu.data         129618                       # Number of read requests responded to by this memory
system.mem_ctrls1.num_reads::.l2.prefetcher         1381                       # Number of read requests responded to by this memory
system.mem_ctrls1.num_reads::total             131351                       # Number of read requests responded to by this memory
system.mem_ctrls1.num_writes::.writebacks       114111                       # Number of write requests responded to by this memory
system.mem_ctrls1.num_writes::total            114111                       # Number of write requests responded to by this memory
system.mem_ctrls1.bw_read::.cpu.inst           225280                       # Total read bandwidth from this memory (bytes/s)
system.mem_ctrls1.bw_read::.cpu.data         82955520                       # Total read bandwidth from this memory (bytes/s)
system.mem_ctrls1.bw_read::.l2.prefetcher       883840                       # Total read bandwidth from this memory (bytes/s)
system.mem_ctrls1.bw_read::total             84064640                       # Total read bandwidth from this memory (bytes/s)
system.mem_ctrls1.bw_inst_read::.cpu.inst       225280                       # Instruction read bandwidth from this memory (bytes/s)
system.mem_ctrls1.bw_inst_read::total          225280                       # Instruction read bandwidth from this memory (bytes/s)
system.mem_ctrls1.bw_write::.writebacks      73031040                       # Write bandwidth from this memory (bytes/s)
system.mem_ctrls1.bw_write::total            73031040                       # Write bandwidth from this memory (bytes/s)
system.mem_ctrls1.bw_total::.writebacks      73031040                       # Total bandwidth to/from this memory (bytes/s)
system.mem_ctrls1.bw_total::.cpu.inst          225280                       # Total bandwidth to/from this memory (bytes/s)
system.mem_ctrls1.bw_total::.cpu.data        82955520                       # Total bandwidth to/from this memory (bytes/s)
system.mem_ctrls1.bw_total::.l2.prefetcher       883840                       # Total bandwidth to/from this memory (bytes/s)
system.mem_ctrls1.bw_total::total           157095680                       # Total bandwidth to/from this memory (bytes/s)
system.mem_ctrls1.avgPriority_.writebacks::samples    114111.00                       # Average QoS priority value for accepted requests
system.mem_ctrls1.avgPriority_.cpu.inst::samples       352.00                       # Average QoS priority value for accepted requests
system.mem_ctrls1.avgPriority_.cpu.data::samples    129599.00                       # Average QoS priority value for accepted requests
system.mem_ctrls1.avgPriority_.l2.prefetcher::samples      1381.00                       # Average QoS priority value for accepted requests
system.mem_ctrls1.priorityMinLatency     0.000000017492                       # per QoS priority minimum request to response latency (s)
system.mem_ctrls1.priorityMaxLatency     0.002096407652                       # per QoS priority maximum request to response latency (s)
system.mem_ctrls1.numReadWriteTurnArounds         6450                       # Number of turnarounds from READ to WRITE
system.mem_ctrls1.numWriteReadTurnArounds         6450                       # Number of turnarounds from WRITE to READ
system.mem_ctrls1.numStayReadState             397706                       # Number of times bus staying in READ state
system.mem_ctrls1.numStayWriteState            107655                       # Number of times bus staying in WRITE state
system.mem_ctrls1.readReqs                     131351                       # Number of read requests accepted
system.mem_ctrls1.writeReqs                    114111                       # Number of write requests accepted
system.mem_ctrls1.readBursts                   131351                       # Number of DRAM read bursts, including those serviced by the write queue
system.mem_ctrls1.writeBursts                  114111                       # Number of DRAM write bursts, including those merged in the write queue
system.mem_ctrls1.bytesReadDRAM               8405248                       # Total number of bytes read from DRAM
system.mem_ctrls1.bytesReadWrQ                   1216                       # Total number of bytes read from write queue
system.mem_ctrls1.bytesWritten                7299840                       # Total number of bytes written to DRAM
system.mem_ctrls1.bytesReadSys                8406464                       # Total read bytes from the system interface side
system.mem_ctrls1.bytesWrittenSys             7303104                       # Total written bytes from the system interface side
system.mem_ctrls1.servicedByWrQ                    19                       # Number of DRAM read bursts serviced by the write queue
system.mem_ctrls1.mergedWrBursts                    0                       # Number of DRAM write bursts merged with an existing one
system.mem_ctrls1.neitherReadNorWriteReqs            0                       # Number of requests that are neither read nor write
system.mem_ctrls1.perBankRdBursts::0             4251                       # Per bank write bursts
system.mem_ctrls1.perBankRdBursts::1             4221                       # Per bank write bursts
system.mem_ctrls1.perBankRdBursts::2             4199                       # Per bank write bursts
system.mem_ctrls1.perBankRdBursts::3             4156                       # Per bank write bursts
system.mem_ctrls1.perBankRdBursts::4             4171                       # Per bank write bursts
system.mem_ctrls1.perBankRdBursts::5             4066                       # Per bank write bursts
system.mem_ctrls1.perBankRdBursts::6             4009                       # Per bank write bursts
system.mem_ctrls1.perBankRdBursts::7             3976                       # Per bank write bursts
system.mem_ctrls1.perBankRdBursts::8             4014                       # Per bank write bursts
system.mem_ctrls1.perBankRdBursts::9             3977                       # Per bank write bursts
system.mem_ctrls1.perBankRdBursts::10            3981                       # Per bank write bursts
system.mem_ctrls1.perBankRdBursts::11            4080                       # Per bank write bursts
system.mem_ctrls1.perBankRdBursts::12            4120                       # Per bank write bursts
system.mem_ctrls1.perBankRdBursts::13            4101                       # Per bank write bursts
system.mem_ctrls1.perBankRdBursts::14            4192                       # Per bank write bursts
system.mem_ctrls1.perBankRdBursts::15            4268                       # Per bank write bursts
system.mem_ctrls1.perBankRdBursts::16            4267                       # Per bank write bursts
system.mem_ctrls1.perBankRdBursts::17            4327                       # Per bank write bursts
system.mem_ctrls1.perBankRdBursts::18            4273                       # Per bank write bursts
system.mem_ctrls1.perBankRdBursts::19            4249                       # Per bank write bursts
system.mem_ctrls1.perBankRdBursts::20            4131                       # Per bank write bursts
system.mem_ctrls1.perBankRdBursts::21            4111                       # Per bank write bursts
system.mem_ctrls1.perBankRdBursts::22            4047                       # Per bank write bursts
system.mem_ctrls1.perBankRdBursts::23            4063                       # Per bank write bursts
system.mem_ctrls1.perBankRdBursts::24            3969                       # Per bank write bursts
system.mem_ctrls1.perBankRdBursts::25            3973                       # Per bank write bursts
system.mem_ctrls1.perBankRdBursts::26            3945                       # Per bank write bursts
system.mem_ctrls1.perBankRdBursts::27            3921                       # Per bank write bursts
system.mem_ctrls1.perBankRdBursts::28            3943                       # Per bank write bursts
system.mem_ctrls1.perBankRdBursts::29            4096                       # Per bank write bursts
system.mem_ctrls1.perBankRdBursts::30            4080                       # Per bank write bursts
system.mem_ctrls1.perBankRdBursts::31            4155                       # Per bank write bursts
system.mem_ctrls1.perBankWrBursts::0             3706                       # Per bank write bursts
system.mem_ctrls1.perBankWrBursts::1             3702                       # Per bank write bursts
system.mem_ctrls1.perBankWrBursts::2             3669                       # Per bank write bursts
system.mem_ctrls1.perBankWrBursts::3             3595                       # Per bank write bursts
system.mem_ctrls1.perBankWrBursts::4             3582                       # Per bank write bursts
system.mem_ctrls1.perBankWrBursts::5             3509                       # Per bank write bursts
system.mem_ctrls1.perBankWrBursts::6             3473                       # Per bank write bursts
system.mem_ctrls1.perBankWrBursts::7             3414                       # Per bank write bursts
system.mem_ctrls1.perBankWrBursts::8             3469                       # Per bank write bursts
system.mem_ctrls1.perBankWrBursts::9             3469                       # Per bank write bursts
system.mem_ctrls1.perBankWrBursts::10            3491                       # Per bank write bursts
system.mem_ctrls1.perBankWrBursts::11            3542                       # Per bank write bursts
system.mem_ctrls1.perBankWrBursts::12            3563                       # Per bank write bursts
system.mem_ctrls1.perBankWrBursts::13            3610                       # Per bank write bursts
system.mem_ctrls1.perBankWrBursts::14            3664                       # Per bank write bursts
system.mem_ctrls1.perBankWrBursts::15            3676                       # Per bank write bursts
system.mem_ctrls1.perBankWrBursts::16            3730                       # Per bank write bursts
system.mem_ctrls1.perBankWrBursts::17            3783                       # Per bank write bursts
system.mem_ctrls1.perBankWrBursts::18            3743                       # Per bank write bursts
system.mem_ctrls1.perBankWrBursts::19            3691                       # Per bank write bursts
system.mem_ctrls1.perBankWrBursts::20            3621                       # Per bank write bursts
system.mem_ctrls1.perBankWrBursts::21            3576                       # Per bank write bursts
system.mem_ctrls1.perBankWrBursts::22            3499                       # Per bank write bursts
system.mem_ctrls1.perBankWrBursts::23            3483                       # Per bank write bursts
system.mem_ctrls1.perBankWrBursts::24            3443                       # Per bank write bursts
system.mem_ctrls1.perBankWrBursts::25            3416                       # Per bank write bursts
system.mem_ctrls1.perBankWrBursts::26            3372                       # Per bank write bursts
system.mem_ctrls1.perBankWrBursts::27            3391                       # Per bank write bursts
system.mem_ctrls1.perBankWrBursts::28            3425                       # Per bank write bursts
system.mem_ctrls1.perBankWrBursts::29            3510                       # Per bank write bursts
system.mem_ctrls1.perBankWrBursts::30            3576                       # Per bank write bursts
system.mem_ctrls1.perBankWrBursts::31            3667                       # Per bank write bursts
system.mem_ctrls1.numRdRetry                        0                       # Number of times read queue was full causing retry
system.mem_ctrls1.numWrRetry                        0                       # Number of times write queue was full causing retry
system.mem_ctrls1.totGap                  99998897000                       # Total gap between requests
system.mem_ctrls1.readPktSize::0                    0                       # Read request sizes (log2)
system.mem_ctrls1.readPktSize::1                    0                       # Read request sizes (log2)
system.mem_ctrls1.readPktSize::2                    0                       # Read request sizes (log2)
system.mem_ctrls1.readPktSize::3                    0                       # Read request sizes (log2)
system.mem_ctrls1.readPktSize::4                    0                       # Read request sizes (log2)
system.mem_ctrls1.readPktSize::5                    0                       # Read request sizes (log2)
system.mem_ctrls1.readPktSize::6               131351                       # Read request sizes (log2)
system.mem_ctrls1.writePktSize::0                   0                       # Write request sizes (log2)
system.mem_ctrls1.writePktSize::1                   0                       # Write request sizes (log2)
system.mem_ctrls1.writePktSize::2                   0                       # Write request sizes (log2)
system.mem_ctrls1.writePktSize::3                   0                       # Write request sizes (log2)
system.mem_ctrls1.writePktSize::4                   0                       # Write request sizes (log2)
system.mem_ctrls1.writePktSize::5                   0                       # Write request sizes (log2)
system.mem_ctrls1.writePktSize::6              114111                       # Write request sizes (log2)
system.mem_ctrls1.rdQLenPdf::0                 117709                       # What read queue length does an incoming req see
system.mem_ctrls1.rdQLenPdf::1                  11815                       # What read queue length does an incoming req see
system.mem_ctrls1.rdQLenPdf::2                   1645                       # What read queue length does an incoming req see
system.mem_ctrls1.rdQLenPdf::3                    156                       # What read queue length does an incoming req see
system.mem_ctrls1.rdQLenPdf::4                      5                       # What read queue length does an incoming req see
system.mem_ctrls1.rdQLenPdf::5                      2                       # What read queue length does an incoming req see
system.mem_ctrls1.rdQLenPdf::6                      0                       # What read queue length does an incoming req see
system.mem_ctrls1.rdQLenPdf::7                      0                       # What read queue length does an incoming req see
system.mem_ctrls1.rdQLenPdf::8                      0                       # What read queue length does an incoming req see
system.mem_ctrls1.rdQLenPdf::9                      0                       # What read queue length does an incoming req see
system.mem_ctrls1.rdQLenPdf::10                     0                       # What read queue length does an incoming req see
system.mem_ctrls1.rdQLenPdf::11                     0                       # What read queue length does an incoming req see
system.mem_ctrls1.rdQLenPdf::12                     0                       # What read queue length does an incoming req see
system.mem_ctrls1.rdQLenPdf::13                     0                       # What read queue length does an incoming req see
system.mem_ctrls1.rdQLenPdf::14                     0                       # What read queue length does an incoming req see
system.mem_ctrls1.rdQLenPdf::15                     0                       # What read queue length does an incoming req see
system.mem_ctrls1.rdQLenPdf::16                     0                       # What read queue length does an incoming req see
system.mem_ctrls1.rdQLenPdf::17                     0                       # What read queue length does an incoming req see
system.mem_ctrls1.rdQLenPdf::18                     0                       # What read queue length does an incoming req see
system.mem_ctrls1.rdQLenPdf::19                     0                       # What read queue length does an incoming req see
system.mem_ctrls1.rdQLenPdf::20                     0                       # What read queue length does an incoming req see
system.mem_ctrls1.rdQLenPdf::21                     0                       # What read queue length does an incoming req see
system.mem_ctrls1.rdQLenPdf::22                     0                       # What read queue length does an incoming req see
system.mem_ctrls1.rdQLenPdf::23                     0                       # What read queue length does an incoming req see
system.mem_ctrls1.rdQLenPdf::24                     0                       # What read queue length does an incoming req see
system.mem_ctrls1.rdQLenPdf::25                     0                       # What read queue length does an incoming req see
system.mem_ctrls1.rdQLenPdf::26                     0                       # What read queue length does an incoming req see
system.mem_ctrls1.rdQLenPdf::27                     0                       # What read queue length does an incoming req see
system.mem_ctrls1.rdQLenPdf::28                     0                       # What read queue length does an incoming req see
system.mem_ctrls1.rdQLenPdf::29                     0                       # What read queue length does an incoming req see
system.mem_ctrls1.rdQLenPdf::30                     0                       # What read queue length does an incoming req see
system.mem_ctrls1.rdQLenPdf::31                     0                       # What read queue length does an incoming req see
system.mem_ctrls1.rdQLenPdf::32                     0                       # What read queue length does an incoming req see
system.mem_ctrls1.rdQLenPdf::33                     0                       # What read queue length does an incoming req see
system.mem_ctrls1.rdQLenPdf::34                     0                       # What read queue length does an incoming req see
system.mem_ctrls1.rdQLenPdf::35                     0                       # What read queue length does an incoming req see
system.mem_ctrls1.rdQLenPdf::36                     0                       # What read queue length does an incoming req see
system.mem_ctrls1.rdQLenPdf::37                     0                       # What read queue length does an incoming req see
system.mem_ctrls1.rdQLenPdf::38                     0                       # What read queue length does an incoming req see
system.mem_ctrls1.rdQLenPdf::39                     0                       # What read queue length does an incoming req see
system.mem_ctrls1.rdQLenPdf::40                     0                       # What read queue length does an incoming req see
system.mem_ctrls1.rdQLenPdf::41                     0                       # What read queue length does an incoming req see
system.mem_ctrls1.rdQLenPdf::42                     0                       # What read queue length does an incoming req see
system.mem_ctrls1.rdQLenPdf::43                     0                       # What read queue length does an incoming req see
system.mem_ctrls1.rdQLenPdf::44                     0                       # What read queue length does an incoming req see
system.mem_ctrls1.rdQLenPdf::45                     0                       # What read queue length does an incoming req see
system.mem_ctrls1.rdQLenPdf::46                     0                       # What read queue length does an incoming req see
system.mem_ctrls1.rdQLenPdf::47                     0                       # What read queue length does an incoming req see
system.mem_ctrls1.rdQLenPdf::48                     0                       # What read queue length does an incoming req see
system.mem_ctrls1.rdQLenPdf::49                     0                       # What read queue length does an incoming req see
system.mem_ctrls1.rdQLenPdf::50                     0                       # What read queue length does an incoming req see
system.mem_ctrls1.rdQLenPdf::51                     0                       # What read queue length does an incoming req see
system.mem_ctrls1.rdQLenPdf::52                     0                       # What read queue length does an incoming req see
system.mem_ctrls1.rdQLenPdf::53                     0                       # What read queue length does an incoming req see
system.mem_ctrls1.rdQLenPdf::54                     0                       # What read queue length does an incoming req see
system.mem_ctrls1.rdQLenPdf::55                     0                       # What read queue length does an incoming req see
system.mem_ctrls1.rdQLenPdf::56                     0                       # What read queue length does an incoming req see
system.mem_ctrls1.rdQLenPdf::57                     0                       # What read queue length does an incoming req see
system.mem_ctrls1.rdQLenPdf::58                     0                       # What read queue length does an incoming req see
system.mem_ctrls1.rdQLenPdf::59                     0                       # What read queue length does an incoming req see
system.mem_ctrls1.rdQLenPdf::60                     0                       # What read queue length does an incoming req see
system.mem_ctrls1.rdQLenPdf::61                     0                       # What read queue length does an incoming req see
system.mem_ctrls1.rdQLenPdf::62                     0                       # What read queue length does an incoming req see
system.mem_ctrls1.rdQLenPdf::63                     0                       # What read queue length does an incoming req see
system.mem_ctrls1.wrQLenPdf::0                      1                       # What write queue length does an incoming req see
system.mem_ctrls1.wrQLenPdf::1                      1                       # What write queue length does an incoming req see
system.mem_ctrls1.wrQLenPdf::2                      1                       # What write queue length does an incoming req see
system.mem_ctrls1.wrQLenPdf::3                      1                       # What write queue length does an incoming req see
system.mem_ctrls1.wrQLenPdf::4                      1                       # What write queue length does an incoming req see
system.mem_ctrls1.wrQLenPdf::5                      1                       # What write queue length does an incoming req see
system.mem_ctrls1.wrQLenPdf::6                      1                       # What write queue length does an incoming req see
system.mem_ctrls1.wrQLenPdf::7                      1                       # What write queue length does an incoming req see
system.mem_ctrls1.wrQLenPdf::8                      1                       # What write queue length does an incoming req see
system.mem_ctrls1.wrQLenPdf::9                      1                       # What write queue length does an incoming req see
system.mem_ctrls1.wrQLenPdf::10                     1                       # What write queue length does an incoming req see
system.mem_ctrls1.wrQLenPdf::11                     1                       # What write queue length does an incoming req see
system.mem_ctrls1.wrQLenPdf::12                     1                       # What write queue length does an incoming req see
system.mem_ctrls1.wrQLenPdf::13                     1                       # What write queue length does an incoming req see
system.mem_ctrls1.wrQLenPdf::14                     1                       # What write queue length does an incoming req see
system.mem_ctrls1.wrQLenPdf::15                     1                       # What write queue length does an incoming req see
system.mem_ctrls1.wrQLenPdf::16                     1                       # What write queue length does an incoming req see
system.mem_ctrls1.wrQLenPdf::17                     1                       # What write queue length does an incoming req see
system.mem_ctrls1.wrQLenPdf::18                     1                       # What write queue length does an incoming req see
system.mem_ctrls1.wrQLenPdf::19                     1                       # What write queue length does an incoming req see
system.mem_ctrls1.wrQLenPdf::20                     1                       # What write queue length does an incoming req see
system.mem_ctrls1.wrQLenPdf::21                     1                       # What write queue length does an incoming req see
system.mem_ctrls1.wrQLenPdf::22                     1                       # What write queue length does an incoming req see
[...]
system.l2.overall_avg_miss_latency::.cpu.inst 106823.246217                       # average overall miss latency
system.l2.overall_avg_miss_latency::.cpu.data 119587.242797                       # average overall miss latency
system.l2.overall_avg_miss_latency::total 119551.560247                       # average overall miss latency
system.l2.blocked_cycles::no_mshrs                  0                       # number of cycles access was blocked
system.l2.blocked_cycles::no_targets                0                       # number of cycles access was blocked
system.l2.blocked::no_mshrs                         0                       # number of cycles access was blocked
system.l2.blocked::no_targets                       0                       # number of cycles access was blocked
system.l2.avg_blocked_cycles::no_mshrs            nan                       # average number of cycles each access was blocked
system.l2.avg_blocked_cycles::no_targets          nan                       # average number of cycles each access was blocked
system.l2.unused_prefetches                        18                       # number of HardPF blocks evicted w/o reference
system.l2.writebacks::.writebacks              228230                       # number of writebacks
system.l2.writebacks::total                    228230                       # number of writebacks
system.l2.HardPFReq_mshr_misses::.l2.prefetcher         4118                       # number of HardPFReq MSHR misses
system.l2.HardPFReq_mshr_misses::total           4118                       # number of HardPFReq MSHR misses
system.l2.UpgradeReq_mshr_misses::.cpu.data            5                       # number of UpgradeReq MSHR misses
system.l2.UpgradeReq_mshr_misses::total             5                       # number of UpgradeReq MSHR misses
system.l2.ReadExReq_mshr_misses::.cpu.data       204364                       # number of ReadExReq MSHR misses
system.l2.ReadExReq_mshr_misses::total         204364                       # number of ReadExReq MSHR misses
system.l2.ReadCleanReq_mshr_misses::.cpu.inst          727                       # number of ReadCleanReq MSHR misses
system.l2.ReadCleanReq_mshr_misses::total          727                       # number of ReadCleanReq MSHR misses
system.l2.ReadSharedReq_mshr_misses::.cpu.data        54964                       # number of ReadSharedReq MSHR misses
system.l2.ReadSharedReq_mshr_misses::total        54964                       # number of ReadSharedReq MSHR misses
system.l2.demand_mshr_misses::.cpu.inst           727                       # number of demand (read+write) MSHR misses
system.l2.demand_mshr_misses::.cpu.data        259328                       # number of demand (read+write) MSHR misses
system.l2.demand_mshr_misses::total            260055                       # number of demand (read+write) MSHR misses
system.l2.overall_mshr_misses::.cpu.inst          727                       # number of overall MSHR misses
system.l2.overall_mshr_misses::.cpu.data       259328                       # number of overall MSHR misses
system.l2.overall_mshr_misses::.l2.prefetcher         4118                       # number of overall MSHR misses
system.l2.overall_mshr_misses::total           264173                       # number of overall MSHR misses
system.l2.HardPFReq_mshr_miss_latency::.l2.prefetcher    208718939                       # number of HardPFReq MSHR miss cycles
system.l2.HardPFReq_mshr_miss_latency::total    208718939                       # number of HardPFReq MSHR miss cycles
system.l2.UpgradeReq_mshr_miss_latency::.cpu.data       152000                       # number of UpgradeReq MSHR miss cycles
system.l2.UpgradeReq_mshr_miss_latency::total       152000                       # number of UpgradeReq MSHR miss cycles
system.l2.ReadExReq_mshr_miss_latency::.cpu.data  19991916500                       # number of ReadExReq MSHR miss cycles
system.l2.ReadExReq_mshr_miss_latency::total  19991916500                       # number of ReadExReq MSHR miss cycles
system.l2.ReadCleanReq_mshr_miss_latency::.cpu.inst     62393500                       # number of ReadCleanReq MSHR miss cycles
system.l2.ReadCleanReq_mshr_miss_latency::total     62393500                       # number of ReadCleanReq MSHR miss cycles
system.l2.ReadSharedReq_mshr_miss_latency::.cpu.data   5574516000                       # number of ReadSharedReq MSHR miss cycles
system.l2.ReadSharedReq_mshr_miss_latency::total   5574516000                       # number of ReadSharedReq MSHR miss cycles
system.l2.demand_mshr_miss_latency::.cpu.inst     62393500                       # number of demand (read+write) MSHR miss cycles
system.l2.demand_mshr_miss_latency::.cpu.data  25566432500                       # number of demand (read+write) MSHR miss cycles
system.l2.demand_mshr_miss_latency::total  25628826000                       # number of demand (read+write) MSHR miss cycles
system.l2.overall_mshr_miss_latency::.cpu.inst     62393500                       # number of overall MSHR miss cycles
system.l2.overall_mshr_miss_latency::.cpu.data  25566432500                       # number of overall MSHR miss cycles
system.l2.overall_mshr_miss_latency::.l2.prefetcher    208718939                       # number of overall MSHR miss cycles
system.l2.overall_mshr_miss_latency::total  25837544939                       # number of overall MSHR miss cycles
system.l2.HardPFReq_mshr_miss_rate::.l2.prefetcher          inf                       # mshr miss rate for HardPFReq accesses
system.l2.HardPFReq_mshr_miss_rate::total          inf                       # mshr miss rate for HardPFReq accesses
system.l2.UpgradeReq_mshr_miss_rate::.cpu.data            1                       # mshr miss rate for UpgradeReq accesses
system.l2.UpgradeReq_mshr_miss_rate::total            1                       # mshr miss rate for UpgradeReq accesses
system.l2.ReadExReq_mshr_miss_rate::.cpu.data     0.984635                       # mshr miss rate for ReadExReq accesses
system.l2.ReadExReq_mshr_miss_rate::total     0.984635                       # mshr miss rate for ReadExReq accesses
system.l2.ReadCleanReq_mshr_miss_rate::.cpu.inst     0.089964                       # mshr miss rate for ReadCleanReq accesses
system.l2.ReadCleanReq_mshr_miss_rate::total     0.089964                       # mshr miss rate for ReadCleanReq accesses
system.l2.ReadSharedReq_mshr_miss_rate::.cpu.data     0.561447                       # mshr miss rate for ReadSharedReq accesses
system.l2.ReadSharedReq_mshr_miss_rate::total     0.561447                       # mshr miss rate for ReadSharedReq accesses
system.l2.demand_mshr_miss_rate::.cpu.inst     0.089964                       # mshr miss rate for demand accesses
system.l2.demand_mshr_miss_rate::.cpu.data     0.849003                       # mshr miss rate for demand accesses
system.l2.demand_mshr_miss_rate::total       0.829440                       # mshr miss rate for demand accesses
system.l2.overall_mshr_miss_rate::.cpu.inst     0.089964                       # mshr miss rate for overall accesses
system.l2.overall_mshr_miss_rate::.cpu.data     0.849003                       # mshr miss rate for overall accesses
system.l2.overall_mshr_miss_rate::.l2.prefetcher          inf                       # mshr miss rate for overall accesses
system.l2.overall_mshr_miss_rate::total      0.842574                       # mshr miss rate for overall accesses
system.l2.HardPFReq_avg_mshr_miss_latency::.l2.prefetcher 50684.540797                       # average HardPFReq mshr miss latency
system.l2.HardPFReq_avg_mshr_miss_latency::total 50684.540797                       # average HardPFReq mshr miss latency
system.l2.UpgradeReq_avg_mshr_miss_latency::.cpu.data        30400                       # average UpgradeReq mshr miss latency
system.l2.UpgradeReq_avg_mshr_miss_latency::total        30400                       # average UpgradeReq mshr miss latency
system.l2.ReadExReq_avg_mshr_miss_latency::.cpu.data 97825.040124                       # average ReadExReq mshr miss latency
system.l2.ReadExReq_avg_mshr_miss_latency::total 97825.040124                       # average ReadExReq mshr miss latency
system.l2.ReadCleanReq_avg_mshr_miss_latency::.cpu.inst 85823.246217                       # average ReadCleanReq mshr miss latency
system.l2.ReadCleanReq_avg_mshr_miss_latency::total 85823.246217                       # average ReadCleanReq mshr miss latency
system.l2.ReadSharedReq_avg_mshr_miss_latency::.cpu.data 101421.221163                       # average ReadSharedReq mshr miss latency
system.l2.ReadSharedReq_avg_mshr_miss_latency::total 101421.221163                       # average ReadSharedReq mshr miss latency
system.l2.demand_avg_mshr_miss_latency::.cpu.inst 85823.246217                       # average overall mshr miss latency
system.l2.demand_avg_mshr_miss_latency::.cpu.data 98587.242797                       # average overall mshr miss latency
system.l2.demand_avg_mshr_miss_latency::total 98551.560247                       # average overall mshr miss latency
system.l2.overall_avg_mshr_miss_latency::.cpu.inst 85823.246217                       # average overall mshr miss latency
system.l2.overall_avg_mshr_miss_latency::.cpu.data 98587.242797                       # average overall mshr miss latency
system.l2.overall_avg_mshr_miss_latency::.l2.prefetcher 50684.540797                       # average overall mshr miss latency
system.l2.overall_avg_mshr_miss_latency::total 97805.396233                       # average overall mshr miss latency
system.l2.replacements                         228592                       # number of replacements
system.membus.snoop_filter.tot_requests        491419                       # Total number of requests made to the snoop filter.
system.membus.snoop_filter.hit_single_requests       228769                       # Number of requests hitting in the snoop filter with a single holder of the requested data.
system.membus.snoop_filter.hit_multi_requests            0                       # Number of requests hitting in the snoop filter with multiple (>1) holders of the requested data.
system.membus.snoop_filter.tot_snoops               0                       # Total number of snoops made to the snoop filter.
system.membus.snoop_filter.hit_single_snoops            0                       # Number of snoops hitting in the snoop filter with a single holder of the requested data.
system.membus.snoop_filter.hit_multi_snoops            0                       # Number of snoops hitting in the snoop filter with multiple (>1) holders of the requested data.
system.membus.pwrStateResidencyTicks::UNDEFINED 100000000000                       # Cumulative time (in ticks) in various power states
system.membus.trans_dist::ReadResp              58458                       # Transaction distribution
system.membus.trans_dist::WritebackDirty       228230                       # Transaction distribution
system.membus.trans_dist::CleanEvict              362                       # Transaction distribution
system.membus.trans_dist::UpgradeReq                5                       # Transaction distribution
system.membus.trans_dist::ReadExReq            204364                       # Transaction distribution
system.membus.trans_dist::ReadExResp           204364                       # Transaction distribution
system.membus.trans_dist::ReadCleanReq          58458                       # Transaction distribution
system.membus.pkt_count_system.l2.mem_side::system.mem_ctrls0.port       377258                       # Packet count per connected master and slave (bytes)
system.membus.pkt_count_system.l2.mem_side::system.mem_ctrls1.port       376983                       # Packet count per connected master and slave (bytes)
system.membus.pkt_count_system.l2.mem_side::total       754241                       # Packet count per connected master and slave (bytes)
system.membus.pkt_count::total                 754241                       # Packet count per connected master and slave (bytes)
system.membus.pkt_size_system.l2.mem_side::system.mem_ctrls0.port     15717760                       # Cumulative packet size per connected master and slave (bytes)
system.membus.pkt_size_system.l2.mem_side::system.mem_ctrls1.port     15709568                       # Cumulative packet size per connected master and slave (bytes)
system.membus.pkt_size_system.l2.mem_side::total     31427328                       # Cumulative packet size per connected master and slave (bytes)
system.membus.pkt_size::total                31427328                       # Cumulative packet size per connected master and slave (bytes)
system.membus.snoops                                0                       # Total snoops (count)
system.membus.snoopTraffic                          0                       # Total snoop traffic (bytes)
system.membus.snoop_fanout::samples            262827                       # Request fanout histogram
system.membus.snoop_fanout::mean                    0                       # Request fanout histogram
system.membus.snoop_fanout::stdev                   0                       # Request fanout histogram
system.membus.snoop_fanout::underflows              0      0.00%      0.00% # Request fanout histogram
system.membus.snoop_fanout::0                  262827    100.00%    100.00% # Request fanout histogram
system.membus.snoop_fanout::1                       0      0.00%    100.00% # Request fanout histogram
system.membus.snoop_fanout::overflows               0      0.00%    100.00% # Request fanout histogram
system.membus.snoop_fanout::min_value               0                       # Request fanout histogram
system.membus.snoop_fanout::max_value               0                       # Request fanout histogram
system.membus.snoop_fanout::total              262827                       # Request fanout histogram
system.membus.reqLayer2.occupancy           727417329                       # Layer occupancy (ticks)
system.membus.reqLayer2.utilization               0.7                       # Layer utilization (%)
system.membus.reqLayer3.occupancy           727165334                       # Layer occupancy (ticks)
system.membus.reqLayer3.utilization               0.7                       # Layer utilization (%)
system.membus.respLayer1.occupancy         1398530928                       # Layer occupancy (ticks)
system.membus.respLayer1.utilization              1.4                       # Layer utilization (%)
system.tol2bus.snoop_filter.tot_requests       625608                       # Total number of requests made to the snoop filter.
system.tol2bus.snoop_filter.hit_single_requests       312069                       # Number of requests hitting in the snoop filter with a single holder of the requested data.
system.tol2bus.snoop_filter.hit_multi_requests          267                       # Number of requests hitting in the snoop filter with multiple (>1) holders of the requested data.
system.tol2bus.snoop_filter.tot_snoops           1351                       # Total number of snoops made to the snoop filter.
system.tol2bus.snoop_filter.hit_single_snoops         1351                       # Number of snoops hitting in the snoop filter with a single holder of the requested data.
system.tol2bus.snoop_filter.hit_multi_snoops            0                       # Number of snoops hitting in the snoop filter with multiple (>1) holders of the requested data.
system.tol2bus.pwrStateResidencyTicks::UNDEFINED 100000000000                       # Cumulative time (in ticks) in various power states
system.tol2bus.trans_dist::ReadResp            105985                       # Transaction distribution
system.tol2bus.trans_dist::WritebackDirty       513828                       # Transaction distribution
system.tol2bus.trans_dist::WritebackClean        26467                       # Transaction distribution
system.tol2bus.trans_dist::CleanEvict             362                       # Transaction distribution
system.tol2bus.trans_dist::HardPFReq             5286                       # Transaction distribution
system.tol2bus.trans_dist::UpgradeReq               5                       # Transaction distribution
system.tol2bus.trans_dist::UpgradeResp              5                       # Transaction distribution
system.tol2bus.trans_dist::ReadExReq           207553                       # Transaction distribution
system.tol2bus.trans_dist::ReadExResp          207553                       # Transaction distribution
system.tol2bus.trans_dist::ReadCleanReq          8088                       # Transaction distribution
system.tol2bus.trans_dist::ReadSharedReq        97897                       # Transaction distribution
system.tol2bus.pkt_count_system.cpu.icache.mem_side::system.l2.cpu_side        23808                       # Packet count per connected master and slave (bytes)
system.tol2bus.pkt_count_system.cpu.dcache.mem_side::system.l2.cpu_side       915336                       # Packet count per connected master and slave (bytes)
system.tol2bus.pkt_count::total                939144                       # Packet count per connected master and slave (bytes)
system.tol2bus.pkt_size_system.cpu.icache.mem_side::system.l2.cpu_side      1006080                       # Cumulative packet size per connected master and slave (bytes)
system.tol2bus.pkt_size_system.cpu.dcache.mem_side::system.l2.cpu_side     39032064                       # Cumulative packet size per connected master and slave (bytes)
system.tol2bus.pkt_size::total               40038144                       # Cumulative packet size per connected master and slave (bytes)
system.tol2bus.snoops                          233885                       # Total snoops (count)
system.tol2bus.snoopTraffic                  14607168                       # Total snoop traffic (bytes)
system.tol2bus.snoop_fanout::samples           547421                       # Request fanout histogram
system.tol2bus.snoop_fanout::mean            0.002963                       # Request fanout histogram
system.tol2bus.snoop_fanout::stdev           0.054353                       # Request fanout histogram
system.tol2bus.snoop_fanout::underflows             0      0.00%      0.00% # Request fanout histogram
system.tol2bus.snoop_fanout::0                 545799     99.70%     99.70% # Request fanout histogram
system.tol2bus.snoop_fanout::1                   1622      0.30%    100.00% # Request fanout histogram
system.tol2bus.snoop_fanout::2                      0      0.00%    100.00% # Request fanout histogram
system.tol2bus.snoop_fanout::3                      0      0.00%    100.00% # Request fanout histogram
system.tol2bus.snoop_fanout::4                      0      0.00%    100.00% # Request fanout histogram
system.tol2bus.snoop_fanout::overflows              0      0.00%    100.00% # Request fanout histogram
system.tol2bus.snoop_fanout::min_value              0                       # Request fanout histogram
system.tol2bus.snoop_fanout::max_value              1                       # Request fanout histogram
system.tol2bus.snoop_fanout::total             547421                       # Request fanout histogram
system.tol2bus.reqLayer0.occupancy          624869000                       # Layer occupancy (ticks)
system.tol2bus.reqLayer0.utilization              0.6                       # Layer utilization (%)
system.tol2bus.respLayer0.occupancy          12132000                       # Layer occupancy (ticks)
system.tol2bus.respLayer0.utilization             0.0                       # Layer utilization (%)
system.tol2bus.respLayer1.occupancy         458181492                       # Layer occupancy (ticks)
system.tol2bus.respLayer1.utilization             0.5                       # Layer utilization (%)

---------- End Simulation Statistics   ----------
